

        *** GPGPU-Sim Simulator Version 4.0.0  [build gpgpu-sim_git-commit-90ec3399763d7c8512cfe7dc193473086c38ca38_modified_4.0] ***


GPGPU-Sim PTX: simulation mode 0 (can change with PTX_SIM_MODE_FUNC environment variable:
               1=functional simulation only, 0=detailed performance simulator)
GPGPU-Sim PTX: overriding embedded ptx with ptx file (PTX_SIM_USE_PTX_FILE is set)
GPGPU-Sim: Configuration options:

-save_embedded_ptx                      0 # saves ptx files embedded in binary as <n>.ptx
-keep                                   0 # keep intermediate files created by GPGPU-Sim when interfacing with external programs
-gpgpu_ptx_save_converted_ptxplus                    0 # Saved converted ptxplus to a file
-gpgpu_occupancy_sm_number                   70 # The SM number to pass to ptxas when getting register usage for computing GPU occupancy. This parameter is required in the config.
-ptx_opcode_latency_int      4,13,4,5,145,21 # Opcode latencies for integers <ADD,MAX,MUL,MAD,DIV,SHFL>Default 1,1,19,25,145,32
-ptx_opcode_latency_fp          4,13,4,5,39 # Opcode latencies for single precision floating points <ADD,MAX,MUL,MAD,DIV>Default 1,1,1,1,30
-ptx_opcode_latency_dp         8,19,8,8,330 # Opcode latencies for double precision floating points <ADD,MAX,MUL,MAD,DIV>Default 8,8,8,8,335
-ptx_opcode_latency_sfu                  100 # Opcode latencies for SFU instructionsDefault 8
-ptx_opcode_latency_tesnor                   64 # Opcode latencies for Tensor instructionsDefault 64
-ptx_opcode_initiation_int          2,2,2,2,8,4 # Opcode initiation intervals for integers <ADD,MAX,MUL,MAD,DIV,SHFL>Default 1,1,4,4,32,4
-ptx_opcode_initiation_fp            2,2,2,2,4 # Opcode initiation intervals for single precision floating points <ADD,MAX,MUL,MAD,DIV>Default 1,1,1,1,5
-ptx_opcode_initiation_dp          4,4,4,4,130 # Opcode initiation intervals for double precision floating points <ADD,MAX,MUL,MAD,DIV>Default 8,8,8,8,130
-ptx_opcode_initiation_sfu                    8 # Opcode initiation intervals for sfu instructionsDefault 8
-ptx_opcode_initiation_tensor                   64 # Opcode initiation intervals for tensor instructionsDefault 64
-cdp_latency         7200,8000,100,12000,1600 # CDP API latency <cudaStreamCreateWithFlags, cudaGetParameterBufferV2_init_perWarp, cudaGetParameterBufferV2_perKernel, cudaLaunchDeviceV2_init_perWarp, cudaLaunchDevicV2_perKernel>Default 7200,8000,100,12000,1600
-network_mode                           2 # Interconnection network mode
-inter_config_file                   mesh # Interconnection network config file
-icnt_in_buffer_limit                  512 # in_buffer_limit
-icnt_out_buffer_limit                  512 # out_buffer_limit
-icnt_subnets                           2 # subnets
-icnt_arbiter_algo                      1 # arbiter_algo
-icnt_verbose                           0 # inct_verbose
-icnt_grant_cycles                      1 # grant_cycles
-gpgpu_ptx_use_cuobjdump                    1 # Use cuobjdump to extract ptx and sass from binaries
-gpgpu_experimental_lib_support                    0 # Try to extract code from cuda libraries [Broken because of unknown cudaGetExportTable]
-checkpoint_option                      0 #  checkpointing flag (0 = no checkpoint)
-checkpoint_kernel                      1 #  checkpointing during execution of which kernel (1- 1st kernel)
-checkpoint_CTA                         0 #  checkpointing after # of CTA (< less than total CTA)
-resume_option                          0 #  resume flag (0 = no resume)
-resume_kernel                          0 #  Resume from which kernel (1= 1st kernel)
-resume_CTA                             0 #  resume from which CTA 
-checkpoint_CTA_t                       0 #  resume from which CTA 
-checkpoint_insn_Y                      0 #  resume from which CTA 
-gpgpu_ptx_convert_to_ptxplus                    0 # Convert SASS (native ISA) to ptxplus and run ptxplus
-gpgpu_ptx_force_max_capability                   70 # Force maximum compute capability
-gpgpu_ptx_inst_debug_to_file                    0 # Dump executed instructions' debug information to file
-gpgpu_ptx_inst_debug_file       inst_debug.txt # Executed instructions' debug output file
-gpgpu_ptx_inst_debug_thread_uid                    1 # Thread UID for executed instructions' debug output
-gpgpu_simd_model                       1 # 1 = post-dominator
-gpgpu_shader_core_pipeline              2048:32 # shader core pipeline config, i.e., {<nthread>:<warpsize>}
-gpgpu_tex_cache:l1  N:4:128:256,L:R:m:N:L,T:512:8,128:2 # per-shader L1 texture cache  (READ-ONLY) config  {<nsets>:<bsize>:<assoc>,<rep>:<wr>:<alloc>:<wr_alloc>,<mshr>:<N>:<merge>,<mq>:<rf>}
-gpgpu_const_cache:l1 N:128:64:8,L:R:f:N:L,S:2:64,4 # per-shader L1 constant memory cache  (READ-ONLY) config  {<nsets>:<bsize>:<assoc>,<rep>:<wr>:<alloc>:<wr_alloc>,<mshr>:<N>:<merge>,<mq>} 
-gpgpu_cache:il1     N:64:128:16,L:R:f:N:L,S:2:48,4 # shader L1 instruction cache config  {<nsets>:<bsize>:<assoc>,<rep>:<wr>:<alloc>:<wr_alloc>,<mshr>:<N>:<merge>,<mq>} 
-gpgpu_cache:dl1     S:1:128:256,L:L:s:N:L,A:256:8,16:0,32 # per-shader L1 data cache config  {<nsets>:<bsize>:<assoc>,<rep>:<wr>:<alloc>:<wr_alloc>,<mshr>:<N>:<merge>,<mq> | none}
-gpgpu_l1_banks                         4 # The number of L1 cache banks
-gpgpu_l1_banks_byte_interleaving                   32 # l1 banks byte interleaving granularity
-gpgpu_l1_banks_hashing_function                    0 # l1 banks hashing function
-gpgpu_l1_latency                      20 # L1 Hit Latency
-gpgpu_smem_latency                    20 # smem Latency
-gpgpu_cache:dl1PrefL1                 none # per-shader L1 data cache config  {<nsets>:<bsize>:<assoc>,<rep>:<wr>:<alloc>:<wr_alloc>,<mshr>:<N>:<merge>,<mq> | none}
-gpgpu_cache:dl1PrefShared                 none # per-shader L1 data cache config  {<nsets>:<bsize>:<assoc>,<rep>:<wr>:<alloc>:<wr_alloc>,<mshr>:<N>:<merge>,<mq> | none}
-gpgpu_gmem_skip_L1D                    0 # global memory access skip L1D cache (implements -Xptxas -dlcm=cg, default=no skip)
-gpgpu_perfect_mem                      0 # enable perfect memory mode (no cache miss)
-n_regfile_gating_group                    4 # group of lanes that should be read/written together)
-gpgpu_clock_gated_reg_file                    0 # enable clock gated reg file for power calculations
-gpgpu_clock_gated_lanes                    0 # enable clock gated lanes for power calculations
-gpgpu_shader_registers                65536 # Number of registers per shader core. Limits number of concurrent CTAs. (default 8192)
-gpgpu_registers_per_block                65536 # Maximum number of registers per CTA. (default 8192)
-gpgpu_ignore_resources_limitation                    0 # gpgpu_ignore_resources_limitation (default 0)
-gpgpu_shader_cta                      32 # Maximum number of concurrent CTAs in shader (default 8)
-gpgpu_num_cta_barriers                   16 # Maximum number of named barriers per CTA (default 16)
-gpgpu_n_clusters                      80 # number of processing clusters
-gpgpu_n_cores_per_cluster                    1 # number of simd cores per cluster
-gpgpu_n_cluster_ejection_buffer_size                   32 # number of packets in ejection buffer
-gpgpu_n_ldst_response_buffer_size                    2 # number of response packets in ld/st unit ejection buffer
-gpgpu_shmem_per_block                65536 # Size of shared memory per thread block or CTA (default 48kB)
-gpgpu_shmem_size                   98304 # Size of shared memory per shader core (default 16kB)
-gpgpu_adaptive_cache_config                    1 # adaptive_cache_config
-gpgpu_shmem_sizeDefault                98304 # Size of shared memory per shader core (default 16kB)
-gpgpu_shmem_size_PrefL1                16384 # Size of shared memory per shader core (default 16kB)
-gpgpu_shmem_size_PrefShared                16384 # Size of shared memory per shader core (default 16kB)
-gpgpu_shmem_num_banks                   32 # Number of banks in the shared memory in each shader core (default 16)
-gpgpu_shmem_limited_broadcast                    0 # Limit shared memory to do one broadcast per cycle (default on)
-gpgpu_shmem_warp_parts                    1 # Number of portions a warp is divided into for shared memory bank conflict check 
-gpgpu_mem_unit_ports                    1 # The number of memory transactions allowed per core cycle
-gpgpu_shmem_warp_parts                    1 # Number of portions a warp is divided into for shared memory bank conflict check 
-gpgpu_warpdistro_shader                   -1 # Specify which shader core to collect the warp size distribution from
-gpgpu_warp_issue_shader                    0 # Specify which shader core to collect the warp issue distribution from
-gpgpu_local_mem_map                    1 # Mapping from local memory space address to simulated GPU physical address space (default = enabled)
-gpgpu_num_reg_banks                   16 # Number of register banks (default = 8)
-gpgpu_reg_bank_use_warp_id                    0 # Use warp ID in mapping registers to banks (default = off)
-gpgpu_sub_core_model                    1 # Sub Core Volta/Pascal model (default = off)
-gpgpu_enable_specialized_operand_collector                    0 # enable_specialized_operand_collector
-gpgpu_operand_collector_num_units_sp                    4 # number of collector units (default = 4)
-gpgpu_operand_collector_num_units_dp                    0 # number of collector units (default = 0)
-gpgpu_operand_collector_num_units_sfu                    4 # number of collector units (default = 4)
-gpgpu_operand_collector_num_units_int                    0 # number of collector units (default = 0)
-gpgpu_operand_collector_num_units_tensor_core                    4 # number of collector units (default = 4)
-gpgpu_operand_collector_num_units_mem                    2 # number of collector units (default = 2)
-gpgpu_operand_collector_num_units_gen                    8 # number of collector units (default = 0)
-gpgpu_operand_collector_num_in_ports_sp                    1 # number of collector unit in ports (default = 1)
-gpgpu_operand_collector_num_in_ports_dp                    0 # number of collector unit in ports (default = 0)
-gpgpu_operand_collector_num_in_ports_sfu                    1 # number of collector unit in ports (default = 1)
-gpgpu_operand_collector_num_in_ports_int                    0 # number of collector unit in ports (default = 0)
-gpgpu_operand_collector_num_in_ports_tensor_core                    1 # number of collector unit in ports (default = 1)
-gpgpu_operand_collector_num_in_ports_mem                    1 # number of collector unit in ports (default = 1)
-gpgpu_operand_collector_num_in_ports_gen                    8 # number of collector unit in ports (default = 0)
-gpgpu_operand_collector_num_out_ports_sp                    1 # number of collector unit in ports (default = 1)
-gpgpu_operand_collector_num_out_ports_dp                    0 # number of collector unit in ports (default = 0)
-gpgpu_operand_collector_num_out_ports_sfu                    1 # number of collector unit in ports (default = 1)
-gpgpu_operand_collector_num_out_ports_int                    0 # number of collector unit in ports (default = 0)
-gpgpu_operand_collector_num_out_ports_tensor_core                    1 # number of collector unit in ports (default = 1)
-gpgpu_operand_collector_num_out_ports_mem                    1 # number of collector unit in ports (default = 1)
-gpgpu_operand_collector_num_out_ports_gen                    8 # number of collector unit in ports (default = 0)
-gpgpu_coalesce_arch                   60 # Coalescing arch (GT200 = 13, Fermi = 20)
-gpgpu_num_sched_per_core                    4 # Number of warp schedulers per core
-gpgpu_max_insn_issue_per_warp                    1 # Max number of instructions that can be issued per warp in one cycle by scheduler (either 1 or 2)
-gpgpu_dual_issue_diff_exec_units                    1 # should dual issue use two different execution unit resources (Default = 1)
-gpgpu_simt_core_sim_order                    1 # Select the simulation order of cores in a cluster (0=Fix, 1=Round-Robin)
-gpgpu_pipeline_widths 4,4,4,4,4,4,4,4,4,4,8,4,4 # Pipeline widths ID_OC_SP,ID_OC_DP,ID_OC_INT,ID_OC_SFU,ID_OC_MEM,OC_EX_SP,OC_EX_DP,OC_EX_INT,OC_EX_SFU,OC_EX_MEM,EX_WB,ID_OC_TENSOR_CORE,OC_EX_TENSOR_CORE
-gpgpu_tensor_core_avail                    1 # Tensor Core Available (default=0)
-gpgpu_num_sp_units                     4 # Number of SP units (default=1)
-gpgpu_num_dp_units                     4 # Number of DP units (default=0)
-gpgpu_num_int_units                    4 # Number of INT units (default=0)
-gpgpu_num_sfu_units                    4 # Number of SF units (default=1)
-gpgpu_num_tensor_core_units                    4 # Number of tensor_core units (default=1)
-gpgpu_num_mem_units                    1 # Number if ldst units (default=1) WARNING: not hooked up to anything
-gpgpu_scheduler                      gto # Scheduler configuration: < lrr | gto | two_level_active > If two_level_active:<num_active_warps>:<inner_prioritization>:<outer_prioritization>For complete list of prioritization values see shader.h enum scheduler_prioritization_typeDefault: gto
-gpgpu_concurrent_kernel_sm                    0 # Support concurrent kernels on a SM (default = disabled)
-gpgpu_perfect_inst_const_cache                    1 # perfect inst and const cache mode, so all inst and const hits in the cache(default = disabled)
-gpgpu_inst_fetch_throughput                    4 # the number of fetched intruction per warp each cycle
-gpgpu_reg_file_port_throughput                    2 # the number ports of the register file
-specialized_unit_1         0,4,4,4,4,BRA # specialized unit config {<enabled>,<num_units>:<latency>:<initiation>,<ID_OC_SPEC>:<OC_EX_SPEC>,<NAME>}
-specialized_unit_2         0,4,4,4,4,BRA # specialized unit config {<enabled>,<num_units>:<latency>:<initiation>,<ID_OC_SPEC>:<OC_EX_SPEC>,<NAME>}
-specialized_unit_3         0,4,4,4,4,BRA # specialized unit config {<enabled>,<num_units>:<latency>:<initiation>,<ID_OC_SPEC>:<OC_EX_SPEC>,<NAME>}
-specialized_unit_4         0,4,4,4,4,BRA # specialized unit config {<enabled>,<num_units>:<latency>:<initiation>,<ID_OC_SPEC>:<OC_EX_SPEC>,<NAME>}
-specialized_unit_5         0,4,4,4,4,BRA # specialized unit config {<enabled>,<num_units>:<latency>:<initiation>,<ID_OC_SPEC>:<OC_EX_SPEC>,<NAME>}
-specialized_unit_6         0,4,4,4,4,BRA # specialized unit config {<enabled>,<num_units>:<latency>:<initiation>,<ID_OC_SPEC>:<OC_EX_SPEC>,<NAME>}
-specialized_unit_7         0,4,4,4,4,BRA # specialized unit config {<enabled>,<num_units>:<latency>:<initiation>,<ID_OC_SPEC>:<OC_EX_SPEC>,<NAME>}
-specialized_unit_8         0,4,4,4,4,BRA # specialized unit config {<enabled>,<num_units>:<latency>:<initiation>,<ID_OC_SPEC>:<OC_EX_SPEC>,<NAME>}
-gpgpu_perf_sim_memcpy                    1 # Fill the L2 cache on memcpy
-gpgpu_simple_dram_model                    0 # simple_dram_model with fixed latency and BW
-gpgpu_dram_scheduler                    1 # 0 = fifo, 1 = FR-FCFS (defaul)
-gpgpu_dram_partition_queues          64:64:64:64 # i2$:$2d:d2$:$2i
-l2_ideal                               0 # Use a ideal L2 cache that always hit
-gpgpu_cache:dl2     S:32:128:24,L:B:m:L:P,A:192:4,32:0,32 # unified banked L2 data cache config  {<nsets>:<bsize>:<assoc>,<rep>:<wr>:<alloc>:<wr_alloc>,<mshr>:<N>:<merge>,<mq>}
-gpgpu_cache:dl2_texture_only                    0 # L2 cache used for texture only
-gpgpu_n_mem                           32 # number of memory modules (e.g. memory controllers) in gpu
-gpgpu_n_sub_partition_per_mchannel                    2 # number of memory subpartition in each memory module
-gpgpu_n_mem_per_ctrlr                    1 # number of memory chips per memory controller
-gpgpu_memlatency_stat                   14 # track and display latency statistics 0x2 enables MC, 0x4 enables queue logs
-gpgpu_frfcfs_dram_sched_queue_size                   64 # 0 = unlimited (default); # entries per chip
-gpgpu_dram_return_queue_size                  192 # 0 = unlimited (default); # entries per chip
-gpgpu_dram_buswidth                   16 # default = 4 bytes (8 bytes per cycle at DDR)
-gpgpu_dram_burst_length                    2 # Burst length of each DRAM request (default = 4 data bus cycle)
-dram_data_command_freq_ratio                    2 # Frequency ratio between DRAM data bus and command bus (default = 2 times, i.e. DDR)
-gpgpu_dram_timing_opt nbk=16:CCD=1:RRD=3:RCD=12:RAS=28:RP=12:RC=40: CL=12:WL=2:CDLR=3:WR=10:nbkgrp=4:CCDL=2:RTPL=3 # DRAM timing parameters = {nbk:tCCD:tRRD:tRCD:tRAS:tRP:tRC:CL:WL:tCDLR:tWR:nbkgrp:tCCDL:tRTPL}
-gpgpu_l2_rop_latency                  160 # ROP queue latency (default 85)
-dram_latency                         100 # DRAM latency (default 30)
-dram_dual_bus_interface                    1 # dual_bus_interface (default = 0) 
-dram_bnk_indexing_policy                    0 # dram_bnk_indexing_policy (0 = normal indexing, 1 = Xoring with the higher bits) (Default = 0)
-dram_bnkgrp_indexing_policy                    1 # dram_bnkgrp_indexing_policy (0 = take higher bits, 1 = take lower bits) (Default = 0)
-dram_seperate_write_queue_enable                    0 # Seperate_Write_Queue_Enable
-dram_write_queue_size             32:28:16 # Write_Queue_Size
-dram_elimnate_rw_turnaround                    0 # elimnate_rw_turnaround i.e set tWTR and tRTW = 0
-icnt_flit_size                        40 # icnt_flit_size
-gpgpu_mem_addr_mapping dramid@8;00000000.00000000.00000000.00000000.0000RRRR.RRRRRRRR.RBBBCCCB.CCCSSSSS # mapping memory address to dram model {dramid@<start bit>;<memory address map>}
-gpgpu_mem_addr_test                    0 # run sweep test to check address mapping for aliased address
-gpgpu_mem_address_mask                    1 # 0 = old addressing mask, 1 = new addressing mask, 2 = new add. mask + flipped bank sel and chip sel bits
-gpgpu_memory_partition_indexing                    2 # 0 = no indexing, 1 = bitwise xoring, 2 = IPoly, 3 = custom indexing
-gpuwattch_xml_file         gpuwattch.xml # GPUWattch XML file
-power_simulation_enabled                    0 # Turn on power simulator (1=On, 0=Off)
-power_per_cycle_dump                    0 # Dump detailed power output each cycle
-power_trace_enabled                    0 # produce a file for the power trace (1=On, 0=Off)
-power_trace_zlevel                     6 # Compression level of the power trace output log (0=no comp, 9=highest)
-steady_power_levels_enabled                    0 # produce a file for the steady power levels (1=On, 0=Off)
-steady_state_definition                  8:4 # allowed deviation:number of samples
-gpgpu_max_cycle                        0 # terminates gpu simulation early (0 = no limit)
-gpgpu_max_insn                         0 # terminates gpu simulation early (0 = no limit)
-gpgpu_max_cta                          0 # terminates gpu simulation early (0 = no limit)
-gpgpu_max_completed_cta                    0 # terminates gpu simulation early (0 = no limit)
-gpgpu_runtime_stat                   500 # display runtime statistics such as dram utilization {<freq>:<flag>}
-liveness_message_freq                    1 # Minimum number of seconds between simulation liveness messages (0 = always print)
-gpgpu_compute_capability_major                    7 # Major compute capability version number
-gpgpu_compute_capability_minor                    0 # Minor compute capability version number
-gpgpu_flush_l1_cache                    1 # Flush L1 cache at the end of each kernel call
-gpgpu_flush_l2_cache                    0 # Flush L2 cache at the end of each kernel call
-gpgpu_deadlock_detect                    1 # Stop the simulation at deadlock (1=on (default), 0=off)
-gpgpu_ptx_instruction_classification                    0 # if enabled will classify ptx instruction types per kernel (Max 255 kernels now)
-gpgpu_ptx_sim_mode                     0 # Select between Performance (default) or Functional simulation (1)
-gpgpu_clock_domains 1132.0:1132.0:1132.0:850.0 # Clock Domain Frequencies in MhZ {<Core Clock>:<ICNT Clock>:<L2 Clock>:<DRAM Clock>}
-gpgpu_max_concurrent_kernel                    8 # maximum kernels that can run concurrently on GPU
-gpgpu_cflog_interval                    0 # Interval between each snapshot in control flow logger
-visualizer_enabled                     0 # Turn on visualizer output (1=On, 0=Off)
-visualizer_outputfile                 NULL # Specifies the output log file for visualizer
-visualizer_zlevel                      6 # Compression level of the visualizer output log (0=no comp, 9=highest)
-gpgpu_stack_size_limit                 1024 # GPU thread stack size
-gpgpu_heap_size_limit              8388608 # GPU malloc heap size 8dae254506dbf7382a6c35d816ae2246  /home/serkan/gcn/cuda/cudaDataLoader.o
Extracting PTX file and ptxas options    1: cudaDataLoader.1.sm_61.ptx -arch=sm_61
Extracting PTX file and ptxas options    2: cudaDataLoader.2.sm_61.ptx -arch=sm_61
Extracting PTX file and ptxas options    3: cudaDataLoader.3.sm_61.ptx -arch=sm_61
Extracting PTX file and ptxas options    4: cudaDataLoader.4.sm_61.ptx -arch=sm_61
Extracting PTX file and ptxas options    5: cudaDataLoader.5.sm_61.ptx -arch=sm_61
Extracting PTX file and ptxas options    6: cudaDataLoader.6.sm_61.ptx -arch=sm_61
Extracting PTX file and ptxas options    7: cudaDataLoader.7.sm_61.ptx -arch=sm_61
Extracting PTX file and ptxas options    8: cudaDataLoader.8.sm_61.ptx -arch=sm_61
Extracting PTX file and ptxas options    9: cudaDataLoader.9.sm_61.ptx -arch=sm_61
Extracting PTX file and ptxas options   10: cudaDataLoader.10.sm_61.ptx -arch=sm_61
Extracting PTX file and ptxas options   11: cudaDataLoader.11.sm_61.ptx -arch=sm_61
Extracting PTX file and ptxas options   12: cudaDataLoader.12.sm_61.ptx -arch=sm_61
Extracting PTX file and ptxas options   13: cudaDataLoader.13.sm_50.ptx -arch=sm_50

-gpgpu_runtime_sync_depth_limit                    2 # GPU device runtime synchronize depth
-gpgpu_runtime_pending_launch_count_limit                 2048 # GPU device runtime pending launch count
-trace_enabled                          0 # Turn on traces
-trace_components                    none # comma seperated list of traces to enable. Complete list found in trace_streams.tup. Default none
-trace_sampling_core                    0 # The core which is printed using CORE_DPRINTF. Default 0
-trace_sampling_memory_partition                   -1 # The memory partition which is printed using MEMPART_DPRINTF. Default -1 (i.e. all)
-enable_ptx_file_line_stats                    1 # Turn on PTX source line statistic profiling. (1 = On)
-ptx_line_stats_filename gpgpu_inst_stats.txt # Output file for PTX source line statistics.
-gpgpu_kernel_launch_latency                 5000 # Kernel launch latency in cycles. Default: 0
-gpgpu_cdp_enabled                      0 # Turn on CDP
-gpgpu_TB_launch_latency                    0 # thread block launch latency in cycles. Default: 0
DRAM Timing Options:
nbk                                    16 # number of banks
CCD                                     1 # column to column delay
RRD                                     3 # minimal delay between activation of rows in different banks
RCD                                    12 # row to column delay
RAS                                    28 # time needed to activate row
RP                                     12 # time needed to precharge (deactivate) row
RC                                     40 # row cycle time
CDLR                                    3 # switching from write to read (changes tWTR)
WR                                     10 # last data-in to row precharge
CL                                     12 # CAS latency
WL                                      2 # Write latency
nbkgrp                                  4 # number of bank groups
CCDL                                    2 # column to column delay between accesses to different bank groups
RTPL                                    3 # read to precharge delay between accesses to different bank groups
Total number of memory sub partition = 64
addr_dec_mask[CHIP]  = 0000000000001f00 	high:13 low:8
addr_dec_mask[BK]    = 00000000000e2000 	high:20 low:13
addr_dec_mask[ROW]   = 00000001fff00000 	high:33 low:20
addr_dec_mask[COL]   = 000000000001c0ff 	high:17 low:0
addr_dec_mask[BURST] = 000000000000001f 	high:5 low:0
sub_partition_id_mask = 0000000000002000
GPGPU-Sim uArch: clock freqs: 1132000000.000000:1132000000.000000:1132000000.000000:850000000.000000
GPGPU-Sim uArch: clock periods: 0.00000000088339222615:0.00000000088339222615:0.00000000088339222615:0.00000000117647058824
*** Initializing Memory Statistics ***
GPGPU-Sim uArch: performance model initialization complete.
self exe links to: /home/serkan/gcn/cuda/cudaDataLoader.o
self exe links to: /home/serkan/gcn/cuda/cudaDataLoader.o
8.0
GPGPU-Sim PTX: __cudaRegisterFatBinary, fat_cubin_handle = 1, filename=default
self exe links to: /home/serkan/gcn/cuda/cudaDataLoader.o
Running md5sum using "md5sum /home/serkan/gcn/cuda/cudaDataLoader.o "
self exe links to: /home/serkan/gcn/cuda/cudaDataLoader.o
Extracting specific PTX file named cudaDataLoader.1.sm_61.ptx 
Extracting specific PTX file named cudaDataLoader.2.sm_61.ptx 
Extracting specific PTX file named cudaDataLoader.3.sm_61.ptx 
Extracting specific PTX file named cudaDataLoader.4.sm_61.ptx 
Extracting specific PTX file named cudaDataLoader.5.sm_61.ptx 
Extracting specific PTX file named cudaDataLoader.6.sm_61.ptx 
Extracting specific PTX file named cudaDataLoader.7.sm_61.ptx 
Extracting specific PTX file named cudaDataLoader.8.sm_61.ptx 
Extracting specific PTX file named cudaDataLoader.9.sm_61.ptx 
Extracting specific PTX file named cudaDataLoader.10.sm_61.ptx 
Extracting specific PTX file named cudaDataLoader.11.sm_61.ptx 
Extracting specific PTX file named cudaDataLoader.12.sm_61.ptx 
Extracting specific PTX file named cudaDataLoader.13.sm_50.ptx 
Extracting specific PTX filExtracting PTX file and ptxas options   14: cudaDataLoader.14.sm_50.ptx -arch=sm_50
Extracting PTX file and ptxas options   15: cudaDataLoader.15.sm_50.ptx -arch=sm_50
Extracting PTX file and ptxas options   16: cudaDataLoader.16.sm_50.ptx -arch=sm_50
Extracting PTX file and ptxas options   17: cudaDataLoader.17.sm_50.ptx -arch=sm_50
Extracting PTX file and ptxas options   18: cudaDataLoader.18.sm_35.ptx -arch=sm_35
Extracting PTX file and ptxas options   19: cudaDataLoader.19.sm_50.ptx -arch=sm_50
Extracting PTX file and ptxas options   20: cudaDataLoader.20.sm_50.ptx -arch=sm_50
Extracting PTX file and ptxas options   21: cudaDataLoader.21.sm_30.ptx -arch=sm_30
Extracting PTX file and ptxas options   22: cudaDataLoader.22.sm_50.ptx -arch=sm_50
Extracting PTX file and ptxas options   23: cudaDataLoader.23.sm_50.ptx -arch=sm_50
e named cudaDataLoader.14.sm_50.ptx 
Extracting specific PTX file named cudaDataLoader.15.sm_50.ptx 
Extracting specific PTX file named cudaDataLoader.16.sm_50.ptx 
Extracting specific PTX file named cudaDataLoader.17.sm_50.ptx 
Extracting specific PTX file named cudaDataLoader.18.sm_35.ptx 
Extracting specific PTX file named cudaDataLoader.19.sm_50.ptx 
Extracting specific PTX file named cudaDataLoader.20.sm_50.ptx 
Extracting specific PTX file named cudaDataLoader.21.sm_30.ptx 
Extracting specific PTX file named cudaDataLoader.22.sm_50.ptx 
Extracting specific PTX file named cudaDataLoader.23.sm_50.ptx 
GPGPU-Sim PTX: __cudaRegisterFunction _Z15initIdentityGPUPPfii : hostFun 0x0x4042c3, fat_cubin_handle = 1
GPGPU-Sim PTX: Parsing cudaDataLoader.21.sm_30.ptx
GPGPU-Sim PTX: finished parsing EMBEDDED .ptx file cudaDataLoader.21.sm_30.ptx
GPGPU-Sim PTX: Parsing cudaDataLoader.18.sm_35.ptx
GPGPU-Sim PTX: finished parsing EMBEDDED .ptx file cudaDataLoader.18.sm_35.ptx
GPGPU-Sim PTX: Parsing cudaDataLoader.13.sm_50.ptx
GPGPU-Sim PTX: finished parsing EMBEDDED .ptx file cudaDataLoader.13.sm_50.ptx
GPGPU-Sim PTX: Parsing cudaDataLoader.14.sm_50.ptx
GPGPU-Sim PTX: allocating global region for "cublasSgemmTexA" from 0x100 to 0x104 (global memory space)
GPGPU-Sim PTX: allocating global region for "cublasSgemmTexB" from 0x104 to 0x108 (global memory space)
GPGPU-Sim PTX: allocating shared region for "_Z23gemm_kernel1x1_tex_coreIfLb1ELb0ELb0ELb0ELb0EEvPT_iiiiiiiiS1_S1_S0_S0_i$__cuda_local_var_25580_36_non_const_Bb" from 0x0 to 0x440 (shared memory space)
GPGPU-Sim PTX: allocating shared region for "_Z23gemm_kernel1x1_tex_coreIfLb1ELb0ELb0ELb0ELb0EEvPT_iiiiiiiiS1_S1_S0_S0_i$__cuda_local_var_25581_36_non_const_Abs" from 0x480 to 0x8c0 (shared memory space)
GPGPU-Sim PTX: instruction assembly for function '_Z23gemm_kernel1x1_tex_coreIfLb1ELb0ELb0ELb0ELb0EEvPT_iiiiiiiiS1_S1_S0_S0_i'...   done.
GPGPU-Sim PTX: allocating shared region for "_Z23gemm_kernel1x1_tex_coreIfLb1ELb0ELb0ELb0ELb1EEvPT_iiiiiiiiS1_S1_S0_S0_i$__cuda_local_var_25580_36_non_const_Bb" from 0x0 to 0x440 (shared memory space)
GPGPU-Sim PTX: allocating shared region for "_Z23gemm_kernel1x1_tex_coreIfLb1ELb0ELb0ELb0ELb1EEvPT_iiiiiiiiS1_S1_S0_S0_i$__cuda_local_var_25581_36_non_const_Abs" from 0x480 to 0x8c0 (shared memory space)
GPGPU-Sim PTX: instruction assembly for function '_Z23gemm_kernel1x1_tex_coreIfLb1ELb0ELb0ELb0ELb1EEvPT_iiiiiiiiS1_S1_S0_S0_i'...   done.
GPGPU-Sim PTX: allocating shared region for "_Z23gemm_kernel1x1_tex_coreIfLb1ELb0ELb0ELb1ELb0EEvPT_iiiiiiiiS1_S1_S0_S0_i$__cuda_local_var_25580_36_non_const_Bb" from 0x0 to 0x440 (shared memory space)
GPGPU-Sim PTX: allocating shared region for "_Z23gemm_kernel1x1_tex_coreIfLb1ELb0ELb0ELb1ELb0EEvPT_iiiiiiiiS1_S1_S0_S0_i$__cuda_local_var_25581_36_non_const_Abs" from 0x480 to 0x8c0 (shared memory space)
GPGPU-Sim PTX: instruction assembly for function '_Z23gemm_kernel1x1_tex_coreIfLb1ELb0ELb0ELb1ELb0EEvPT_iiiiiiiiS1_S1_S0_S0_i'...   done.
GPGPU-Sim PTX: allocating shared region for "_Z23gemm_kernel1x1_tex_coreIfLb1ELb0ELb0ELb1ELb1EEvPT_iiiiiiiiS1_S1_S0_S0_i$__cuda_local_var_25580_36_non_const_Bb" from 0x0 to 0x440 (shared memory space)
GPGPU-Sim PTX: allocating shared region for "_Z23gemm_kernel1x1_tex_coreIfLb1ELb0ELb0ELb1ELb1EEvPT_iiiiiiiiS1_S1_S0_S0_i$__cuda_local_var_25581_36_non_const_Abs" from 0x480 to 0x8c0 (shared memory space)
GPGPU-Sim PTX: instruction assembly for function '_Z23gemm_kernel1x1_tex_coreIfLb1ELb0ELb0ELb1ELb1EEvPT_iiiiiiiiS1_S1_S0_S0_i'...   done.
GPGPU-Sim PTX: allocating shared region for "_Z23gemm_kernel1x1_tex_coreIfLb0ELb0ELb0ELb0ELb0EEvPT_iiiiiiiiS1_S1_S0_S0_i$__cuda_local_var_25580_36_non_const_Bb" from 0x0 to 0x440 (shared memory space)
GPGPU-Sim PTX: allocating shared region for "_Z23gemm_kernel1x1_tex_coreIfLb0ELb0ELb0ELb0ELb0EEvPT_iiiiiiiiS1_S1_S0_S0_i$__cuda_local_var_25581_36_non_const_Abs" from 0x480 to 0x8c0 (shared memory space)
GPGPU-Sim PTX: instruction assembly for function '_Z23gemm_kernel1x1_tex_coreIfLb0ELb0ELb0ELb0ELb0EEvPT_iiiiiiiiS1_S1_S0_S0_i'...   done.
GPGPU-Sim PTX: allocating shared region for "_Z23gemm_kernel1x1_tex_coreIfLb0ELb0ELb0ELb0ELb1EEvPT_iiiiiiiiS1_S1_S0_S0_i$__cuda_local_var_25580_36_non_const_Bb" from 0x0 to 0x440 (shared memory space)
GPGPU-Sim PTX: allocating shared region for "_Z23gemm_kernel1x1_tex_coreIfLb0ELb0ELb0ELb0ELb1EEvPT_iiiiiiiiS1_S1_S0_S0_i$__cuda_local_var_25581_36_non_const_Abs" from 0x480 to 0x8c0 (shared memory space)
GPGPU-Sim PTX: instruction assembly for function '_Z23gemm_kernel1x1_tex_coreIfLb0ELb0ELb0ELb0ELb1EEvPT_iiiiiiiiS1_S1_S0_S0_i'...   done.
GPGPU-Sim PTX: allocating shared region for "_Z23gemm_kernel1x1_tex_coreIfLb0ELb0ELb0ELb1ELb0EEvPT_iiiiiiiiS1_S1_S0_S0_i$__cuda_local_var_25580_36_non_const_Bb" from 0x0 to 0x440 (shared memory space)
GPGPU-Sim PTX: allocating shared region for "_Z23gemm_kernel1x1_tex_coreIfLb0ELb0ELb0ELb1ELb0EEvPT_iiiiiiiiS1_S1_S0_S0_i$__cuda_local_var_25581_36_non_const_Abs" from 0x480 to 0x8c0 (shared memory space)
GPGPU-Sim PTX: instruction assembly for function '_Z23gemm_kernel1x1_tex_coreIfLb0ELb0ELb0ELb1ELb0EEvPT_iiiiiiiiS1_S1_S0_S0_i'...   done.
GPGPU-Sim PTX: allocating shared region for "_Z23gemm_kernel1x1_tex_coreIfLb0ELb0ELb0ELb1ELb1EEvPT_iiiiiiiiS1_S1_S0_S0_i$__cuda_local_var_25580_36_non_const_Bb" from 0x0 to 0x440 (shared memory space)
GPGPU-Sim PTX: allocating shared region for "_Z23gemm_kernel1x1_tex_coreIfLb0ELb0ELb0ELb1ELb1EEvPT_iiiiiiiiS1_S1_S0_S0_i$__cuda_local_var_25581_36_non_const_Abs" from 0x480 to 0x8c0 (shared memory space)
GPGPU-Sim PTX: instruction assembly for function '_Z23gemm_kernel1x1_tex_coreIfLb0ELb0ELb0ELb1ELb1EEvPT_iiiiiiiiS1_S1_S0_S0_i'...   done.
GPGPU-Sim PTX: allocating shared region for "_Z19gemm_kernel1x1_coreIfLb1ELb0ELb0ELb0ELb0EEvPT_PKS0_S3_iiiiiiS1_S1_S0_S0_i$__cuda_local_var_24205_36_non_const_Bb" from 0x0 to 0x440 (shared memory space)
GPGPU-Sim PTX: allocating shared region for "_Z19gemm_kernel1x1_coreIfLb1ELb0ELb0ELb0ELb0EEvPT_PKS0_S3_iiiiiiS1_S1_S0_S0_i$__cuda_local_var_24206_36_non_const_Abs" from 0x480 to 0x8c0 (shared memory space)
GPGPU-Sim PTX: instruction assembly for function '_Z19gemm_kernel1x1_coreIfLb1ELb0ELb0ELb0ELb0EEvPT_PKS0_S3_iiiiiiS1_S1_S0_S0_i'...   done.
GPGPU-Sim PTX: allocating shared region for "_Z19gemm_kernel1x1_coreIfLb1ELb0ELb0ELb0ELb1EEvPT_PKS0_S3_iiiiiiS1_S1_S0_S0_i$__cuda_local_var_24205_36_non_const_Bb" from 0x0 to 0x440 (shared memory space)
GPGPU-Sim PTX: allocating shared region for "_Z19gemm_kernel1x1_coreIfLb1ELb0ELb0ELb0ELb1EEvPT_PKS0_S3_iiiiiiS1_S1_S0_S0_i$__cuda_local_var_24206_36_non_const_Abs" from 0x480 to 0x8c0 (shared memory space)
GPGPU-Sim PTX: instruction assembly for function '_Z19gemm_kernel1x1_coreIfLb1ELb0ELb0ELb0ELb1EEvPT_PKS0_S3_iiiiiiS1_S1_S0_S0_i'...   done.
GPGPU-Sim PTX: allocating shared region for "_Z19gemm_kernel1x1_coreIfLb1ELb0ELb0ELb1ELb0EEvPT_PKS0_S3_iiiiiiS1_S1_S0_S0_i$__cuda_local_var_24205_36_non_const_Bb" from 0x0 to 0x440 (shared memory space)
GPGPU-Sim PTX: allocating shared region for "_Z19gemm_kernel1x1_coreIfLb1ELb0ELb0ELb1ELb0EEvPT_PKS0_S3_iiiiiiS1_S1_S0_S0_i$__cuda_local_var_24206_36_non_const_Abs" from 0x480 to 0x8c0 (shared memory space)
GPGPU-Sim PTX: instruction assembly for function '_Z19gemm_kernel1x1_coreIfLb1ELb0ELb0ELb1ELb0EEvPT_PKS0_S3_iiiiiiS1_S1_S0_S0_i'...   done.
GPGPU-Sim PTX: allocating shared region for "_Z19gemm_kernel1x1_coreIfLb1ELb0ELb0ELb1ELb1EEvPT_PKS0_S3_iiiiiiS1_S1_S0_S0_i$__cuda_local_var_24205_36_non_const_Bb" from 0x0 to 0x440 (shared memory space)
GPGPU-Sim PTX: allocating shared region for "_Z19gemm_kernel1x1_coreIfLb1ELb0ELb0ELb1ELb1EEvPT_PKS0_S3_iiiiiiS1_S1_S0_S0_i$__cuda_local_var_24206_36_non_const_Abs" from 0x480 to 0x8c0 (shared memory space)
GPGPU-Sim PTX: instruction assembly for function '_Z19gemm_kernel1x1_coreIfLb1ELb0ELb0ELb1ELb1EEvPT_PKS0_S3_iiiiiiS1_S1_S0_S0_i'...   done.
GPGPU-Sim PTX: allocating shared region for "_Z19gemm_kernel1x1_coreIfLb0ELb0ELb0ELb0ELb0EEvPT_PKS0_S3_iiiiiiS1_S1_S0_S0_i$__cuda_local_var_24205_36_non_const_Bb" from 0x0 to 0x440 (shared memory space)
GPGPU-Sim PTX: allocating shared region for "_Z19gemm_kernel1x1_coreIfLb0ELb0ELb0ELb0ELb0EEvPT_PKS0_S3_iiiiiiS1_S1_S0_S0_i$__cuda_local_var_24206_36_non_const_Abs" from 0x480 to 0x8c0 (shared memory space)
GPGPU-Sim PTX: instruction assembly for function '_Z19gemm_kernel1x1_coreIfLb0ELb0ELb0ELb0ELb0EEvPT_PKS0_S3_iiiiiiS1_S1_S0_S0_i'...   done.
GPGPU-Sim PTX: allocating shared region for "_Z19gemm_kernel1x1_coreIfLb0ELb0ELb0ELb0ELb1EEvPT_PKS0_S3_iiiiiiS1_S1_S0_S0_i$__cuda_local_var_24205_36_non_const_Bb" from 0x0 to 0x440 (shared memory space)
GPGPU-Sim PTX: allocating shared region for "_Z19gemm_kernel1x1_coreIfLb0ELb0ELb0ELb0ELb1EEvPT_PKS0_S3_iiiiiiS1_S1_S0_S0_i$__cuda_local_var_24206_36_non_const_Abs" from 0x480 to 0x8c0 (shared memory space)
GPGPU-Sim PTX: instruction assembly for function '_Z19gemm_kernel1x1_coreIfLb0ELb0ELb0ELb0ELb1EEvPT_PKS0_S3_iiiiiiS1_S1_S0_S0_i'...   done.
GPGPU-Sim PTX: allocating shared region for "_Z19gemm_kernel1x1_coreIfLb0ELb0ELb0ELb1ELb0EEvPT_PKS0_S3_iiiiiiS1_S1_S0_S0_i$__cuda_local_var_24205_36_non_const_Bb" from 0x0 to 0x440 (shared memory space)
GPGPU-Sim PTX: allocating shared region for "_Z19gemm_kernel1x1_coreIfLb0ELb0ELb0ELb1ELb0EEvPT_PKS0_S3_iiiiiiS1_S1_S0_S0_i$__cuda_local_var_24206_36_non_const_Abs" from 0x480 to 0x8c0 (shared memory space)
GPGPU-Sim PTX: instruction assembly for function '_Z19gemm_kernel1x1_coreIfLb0ELb0ELb0ELb1ELb0EEvPT_PKS0_S3_iiiiiiS1_S1_S0_S0_i'...   done.
GPGPU-Sim PTX: allocating shared region for "_Z19gemm_kernel1x1_coreIfLb0ELb0ELb0ELb1ELb1EEvPT_PKS0_S3_iiiiiiS1_S1_S0_S0_i$__cuda_local_var_24205_36_non_const_Bb" from 0x0 to 0x440 (shared memory space)
GPGPU-Sim PTX: allocating shared region for "_Z19gemm_kernel1x1_coreIfLb0ELb0ELb0ELb1ELb1EEvPT_PKS0_S3_iiiiiiS1_S1_S0_S0_i$__cuda_local_var_24206_36_non_const_Abs" from 0x480 to 0x8c0 (shared memory space)
GPGPU-Sim PTX: instruction assembly for function '_Z19gemm_kernel1x1_coreIfLb0ELb0ELb0ELb1ELb1EEvPT_PKS0_S3_iiiiiiS1_S1_S0_S0_i'...   done.
GPGPU-Sim PTX: allocating shared region for "_Z19gemm_kernel2x1_coreIfLb1ELb0ELb0ELb0ELb0EEvPT_PKS0_S3_iiiiiiS1_S1_S0_S0_i$__cuda_local_var_24729_36_non_const_Bb" from 0x0 to 0x840 (shared memory space)
GPGPU-Sim PTX: allocating shared region for "_Z19gemm_kernel2x1_coreIfLb1ELb0ELb0ELb0ELb0EEvPT_PKS0_S3_iiiiiiS1_S1_S0_S0_i$__cuda_local_var_24730_36_non_const_Abs" from 0x880 to 0x1100 (shared memory space)
GPGPU-Sim PTX: instruction assembly for function '_Z19gemm_kernel2x1_coreIfLb1ELb0ELb0ELb0ELb0EEvPT_PKS0_S3_iiiiiiS1_S1_S0_S0_i'...   done.
GPGPU-Sim PTX: allocating shared region for "_Z19gemm_kernel2x1_coreIfLb1ELb0ELb0ELb0ELb1EEvPT_PKS0_S3_iiiiiiS1_S1_S0_S0_i$__cuda_local_var_24729_36_non_const_Bb" from 0x0 to 0x840 (shared memory space)
GPGPU-Sim PTX: allocating shared region for "_Z19gemm_kernel2x1_coreIfLb1ELb0ELb0ELb0ELb1EEvPT_PKS0_S3_iiiiiiS1_S1_S0_S0_i$__cuda_local_var_24730_36_non_const_Abs" from 0x880 to 0x1100 (shared memory space)
GPGPU-Sim PTX: instruction assembly for function '_Z19gemm_kernel2x1_coreIfLb1ELb0ELb0ELb0ELb1EEvPT_PKS0_S3_iiiiiiS1_S1_S0_S0_i'...   done.
GPGPU-Sim PTX: allocating shared region for "_Z19gemm_kernel2x1_coreIfLb1ELb0ELb0ELb1ELb0EEvPT_PKS0_S3_iiiiiiS1_S1_S0_S0_i$__cuda_local_var_24729_36_non_const_Bb" from 0x0 to 0x840 (shared memory space)
GPGPU-Sim PTX: allocating shared region for "_Z19gemm_kernel2x1_coreIfLb1ELb0ELb0ELb1ELb0EEvPT_PKS0_S3_iiiiiiS1_S1_S0_S0_i$__cuda_local_var_24730_36_non_const_Abs" from 0x880 to 0x1100 (shared memory space)
GPGPU-Sim PTX: instruction assembly for function '_Z19gemm_kernel2x1_coreIfLb1ELb0ELb0ELb1ELb0EEvPT_PKS0_S3_iiiiiiS1_S1_S0_S0_i'...   done.
GPGPU-Sim PTX: allocating shared region for "_Z19gemm_kernel2x1_coreIfLb1ELb0ELb0ELb1ELb1EEvPT_PKS0_S3_iiiiiiS1_S1_S0_S0_i$__cuda_local_var_24729_36_non_const_Bb" from 0x0 to 0x840 (shared memory space)
GPGPU-Sim PTX: allocating shared region for "_Z19gemm_kernel2x1_coreIfLb1ELb0ELb0ELb1ELb1EEvPT_PKS0_S3_iiiiiiS1_S1_S0_S0_i$__cuda_local_var_24730_36_non_const_Abs" from 0x880 to 0x1100 (shared memory space)
GPGPU-Sim PTX: instruction assembly for function '_Z19gemm_kernel2x1_coreIfLb1ELb0ELb0ELb1ELb1EEvPT_PKS0_S3_iiiiiiS1_S1_S0_S0_i'...   done.
GPGPU-Sim PTX: allocating shared region for "_Z19gemm_kernel2x1_coreIfLb0ELb0ELb0ELb0ELb0EEvPT_PKS0_S3_iiiiiiS1_S1_S0_S0_i$__cuda_local_var_24729_36_non_const_Bb" from 0x0 to 0x840 (shared memory space)
GPGPU-Sim PTX: allocating shared region for "_Z19gemm_kernel2x1_coreIfLb0ELb0ELb0ELb0ELb0EEvPT_PKS0_S3_iiiiiiS1_S1_S0_S0_i$__cuda_local_var_24730_36_non_const_Abs" from 0x880 to 0x1100 (shared memory space)
GPGPU-Sim PTX: instruction assembly for function '_Z19gemm_kernel2x1_coreIfLb0ELb0ELb0ELb0ELb0EEvPT_PKS0_S3_iiiiiiS1_S1_S0_S0_i'...   done.
GPGPU-Sim PTX: allocating shared region for "_Z19gemm_kernel2x1_coreIfLb0ELb0ELb0ELb0ELb1EEvPT_PKS0_S3_iiiiiiS1_S1_S0_S0_i$__cuda_local_var_24729_36_non_const_Bb" from 0x0 to 0x840 (shared memory space)
GPGPU-Sim PTX: allocating shared region for "_Z19gemm_kernel2x1_coreIfLb0ELb0ELb0ELb0ELb1EEvPT_PKS0_S3_iiiiiiS1_S1_S0_S0_i$__cuda_local_var_24730_36_non_const_Abs" from 0x880 to 0x1100 (shared memory space)
GPGPU-Sim PTX: instruction assembly for function '_Z19gemm_kernel2x1_coreIfLb0ELb0ELb0ELb0ELb1EEvPT_PKS0_S3_iiiiiiS1_S1_S0_S0_i'...   done.
GPGPU-Sim PTX: allocating shared region for "_Z19gemm_kernel2x1_coreIfLb0ELb0ELb0ELb1ELb0EEvPT_PKS0_S3_iiiiiiS1_S1_S0_S0_i$__cuda_local_var_24729_36_non_const_Bb" from 0x0 to 0x840 (shared memory space)
GPGPU-Sim PTX: allocating shared region for "_Z19gemm_kernel2x1_coreIfLb0ELb0ELb0ELb1ELb0EEvPT_PKS0_S3_iiiiiiS1_S1_S0_S0_i$__cuda_local_var_24730_36_non_const_Abs" from 0x880 to 0x1100 (shared memory space)
GPGPU-Sim PTX: instruction assembly for function '_Z19gemm_kernel2x1_coreIfLb0ELb0ELb0ELb1ELb0EEvPT_PKS0_S3_iiiiiiS1_S1_S0_S0_i'...   done.
GPGPU-Sim PTX: allocating shared region for "_Z19gemm_kernel2x1_coreIfLb0ELb0ELb0ELb1ELb1EEvPT_PKS0_S3_iiiiiiS1_S1_S0_S0_i$__cuda_local_var_24729_36_non_const_Bb" from 0x0 to 0x840 (shared memory space)
GPGPU-Sim PTX: allocating shared region for "_Z19gemm_kernel2x1_coreIfLb0ELb0ELb0ELb1ELb1EEvPT_PKS0_S3_iiiiiiS1_S1_S0_S0_i$__cuda_local_var_24730_36_non_const_Abs" from 0x880 to 0x1100 (shared memory space)
GPGPU-Sim PTX: instruction assembly for function '_Z19gemm_kernel2x1_coreIfLb0ELb0ELb0ELb1ELb1EEvPT_PKS0_S3_iiiiiiS1_S1_S0_S0_i'...   done.
GPGPU-Sim PTX: allocating shared region for "_Z13gemmk1_kernelIfLi256ELi5ELb0ELb0ELb0ELb0EEv18cublasGemmk1ParamsIT_EPKS1_S4_PS1_$__cuda_local_var_24913_36_non_const_Ai" from 0x0 to 0x88 (shared memory space)
GPGPU-Sim PTX: allocating shared region for "_Z13gemmk1_kernelIfLi256ELi5ELb0ELb0ELb0ELb0EEv18cublasGemmk1ParamsIT_EPKS1_S4_PS1_$__cuda_local_var_24914_36_non_const_Bj" from 0x100 to 0x188 (shared memory space)
GPGPU-Sim PTX: instruction assembly for function '_Z13gemmk1_kernelIfLi256ELi5ELb0ELb0ELb0ELb0EEv18cublasGemmk1ParamsIT_EPKS1_S4_PS1_'...   done.
GPGPU-Sim PTX: allocating shared region for "_Z13gemmk1_kernelIfLi256ELi5ELb0ELb0ELb1ELb0EEv18cublasGemmk1ParamsIT_EPKS1_S4_PS1_$__cuda_local_var_24913_36_non_const_Ai" from 0x0 to 0x88 (shared memory space)
GPGPU-Sim PTX: allocating shared region for "_Z13gemmk1_kernelIfLi256ELi5ELb0ELb0ELb1ELb0EEv18cublasGemmk1ParamsIT_EPKS1_S4_PS1_$__cuda_local_var_24914_36_non_const_Bj" from 0x100 to 0x188 (shared memory space)
GPGPU-Sim PTX: instruction assembly for function '_Z13gemmk1_kernelIfLi256ELi5ELb0ELb0ELb1ELb0EEv18cublasGemmk1ParamsIT_EPKS1_S4_PS1_'...   done.
GPGPU-Sim PTX: allocating shared region for "_Z13gemmk1_kernelIfLi256ELi5ELb0ELb0ELb1ELb1EEv18cublasGemmk1ParamsIT_EPKS1_S4_PS1_$__cuda_local_var_24913_36_non_const_Ai" from 0x0 to 0x88 (shared memory space)
GPGPU-Sim PTX: allocating shared region for "_Z13gemmk1_kernelIfLi256ELi5ELb0ELb0ELb1ELb1EEv18cublasGemmk1ParamsIT_EPKS1_S4_PS1_$__cuda_local_var_24914_36_non_const_Bj" from 0x100 to 0x188 (shared memory space)
GPGPU-Sim PTX: instruction assembly for function '_Z13gemmk1_kernelIfLi256ELi5ELb0ELb0ELb1ELb1EEv18cublasGemmk1ParamsIT_EPKS1_S4_PS1_'...   done.
GPGPU-Sim PTX: allocating shared region for "_Z13gemmk1_kernelIfLi256ELi5ELb1ELb0ELb0ELb0EEv18cublasGemmk1ParamsIT_EPKS1_S4_PS1_$__cuda_local_var_24913_36_non_const_Ai" from 0x0 to 0x88 (shared memory space)
GPGPU-Sim PTX: allocating shared region for "_Z13gemmk1_kernelIfLi256ELi5ELb1ELb0ELb0ELb0EEv18cublasGemmk1ParamsIT_EPKS1_S4_PS1_$__cuda_local_var_24914_36_non_const_Bj" from 0x100 to 0x188 (shared memory space)
GPGPU-Sim PTX: instruction assembly for function '_Z13gemmk1_kernelIfLi256ELi5ELb1ELb0ELb0ELb0EEv18cublasGemmk1ParamsIT_EPKS1_S4_PS1_'...   done.
GPGPU-Sim PTX: allocating shared region for "_Z13gemmk1_kernelIfLi256ELi5ELb1ELb0ELb1ELb0EEv18cublasGemmk1ParamsIT_EPKS1_S4_PS1_$__cuda_local_var_24913_36_non_const_Ai" from 0x0 to 0x88 (shared memory space)
GPGPU-Sim PTX: allocating shared region for "_Z13gemmk1_kernelIfLi256ELi5ELb1ELb0ELb1ELb0EEv18cublasGemmk1ParamsIT_EPKS1_S4_PS1_$__cuda_local_var_24914_36_non_const_Bj" from 0x100 to 0x188 (shared memory space)
GPGPU-Sim PTX: instruction assembly for function '_Z13gemmk1_kernelIfLi256ELi5ELb1ELb0ELb1ELb0EEv18cublasGemmk1ParamsIT_EPKS1_S4_PS1_'...   done.
GPGPU-Sim PTX: allocating shared region for "_Z13gemmk1_kernelIfLi256ELi5ELb1ELb0ELb1ELb1EEv18cublasGemmk1ParamsIT_EPKS1_S4_PS1_$__cuda_local_var_24913_36_non_const_Ai" from 0x0 to 0x88 (shared memory space)
GPGPU-Sim PTX: allocating shared region for "_Z13gemmk1_kernelIfLi256ELi5ELb1ELb0ELb1ELb1EEv18cublasGemmk1ParamsIT_EPKS1_S4_PS1_$__cuda_local_var_24914_36_non_const_Bj" from 0x100 to 0x188 (shared memory space)
GPGPU-Sim PTX: instruction assembly for function '_Z13gemmk1_kernelIfLi256ELi5ELb1ELb0ELb1ELb1EEv18cublasGemmk1ParamsIT_EPKS1_S4_PS1_'...   done.
GPGPU-Sim PTX: allocating shared region for "_Z13gemmk1_kernelIfLi256ELi5ELb1ELb1ELb0ELb0EEv18cublasGemmk1ParamsIT_EPKS1_S4_PS1_$__cuda_local_var_24913_36_non_const_Ai" from 0x0 to 0x88 (shared memory space)
GPGPU-Sim PTX: allocating shared region for "_Z13gemmk1_kernelIfLi256ELi5ELb1ELb1ELb0ELb0EEv18cublasGemmk1ParamsIT_EPKS1_S4_PS1_$__cuda_local_var_24914_36_non_const_Bj" from 0x100 to 0x188 (shared memory space)
GPGPU-Sim PTX: instruction assembly for function '_Z13gemmk1_kernelIfLi256ELi5ELb1ELb1ELb0ELb0EEv18cublasGemmk1ParamsIT_EPKS1_S4_PS1_'...   done.
GPGPU-Sim PTX: allocating shared region for "_Z13gemmk1_kernelIfLi256ELi5ELb1ELb1ELb1ELb0EEv18cublasGemmk1ParamsIT_EPKS1_S4_PS1_$__cuda_local_var_24913_36_non_const_Ai" from 0x0 to 0x88 (shared memory space)
GPGPU-Sim PTX: allocating shared region for "_Z13gemmk1_kernelIfLi256ELi5ELb1ELb1ELb1ELb0EEv18cublasGemmk1ParamsIT_EPKS1_S4_PS1_$__cuda_local_var_24914_36_non_const_Bj" from 0x100 to 0x188 (shared memory space)
GPGPU-Sim PTX: instruction assembly for function '_Z13gemmk1_kernelIfLi256ELi5ELb1ELb1ELb1ELb0EEv18cublasGemmk1ParamsIT_EPKS1_S4_PS1_'...   done.
GPGPU-Sim PTX: allocating shared region for "_Z13gemmk1_kernelIfLi256ELi5ELb1ELb1ELb1ELb1EEv18cublasGemmk1ParamsIT_EPKS1_S4_PS1_$__cuda_local_var_24913_36_non_const_Ai" from 0x0 to 0x88 (shared memory space)
GPGPU-Sim PTX: allocating shared region for "_Z13gemmk1_kernelIfLi256ELi5ELb1ELb1ELb1ELb1EEv18cublasGemmk1ParamsIT_EPKS1_S4_PS1_$__cuda_local_var_24914_36_non_const_Bj" from 0x100 to 0x188 (shared memory space)
GPGPU-Sim PTX: instruction assembly for function '_Z13gemmk1_kernelIfLi256ELi5ELb1ELb1ELb1ELb1EEv18cublasGemmk1ParamsIT_EPKS1_S4_PS1_'...   done.
GPGPU-Sim PTX: finished parsing EMBEDDED .ptx file cudaDataLoader.14.sm_50.ptx
GPGPU-Sim PTX: Parsing cudaDataLoader.15.sm_50.ptx
GPGPU-Sim: Warning: .minnctapersm ignored. 
GPGPU-Sim PTX: allocating shared region for "_Z12sgemmNN_corePKfiS0_iPfiiS0_S0_ffi$__cuda_local_var_22761_39_non_const_bs" from 0x0 to 0x440 (shared memory space)
GPGPU-Sim PTX: instruction assembly for function '_Z12sgemmNN_corePKfiS0_iPfiiS0_S0_ffi'...   done.
GPGPU-Sim: Warning: .minnctapersm ignored. 
GPGPU-Sim PTX: allocating shared region for "_Z16gen_sgemmNN_corePKfiS0_iPfiiiiS0_S0_ffi$__cuda_local_var_22864_39_non_const_bs" from 0x0 to 0x440 (shared memory space)
GPGPU-Sim PTX: instruction assembly for function '_Z16gen_sgemmNN_corePKfiS0_iPfiiiiS0_S0_ffi'...   done.
GPGPU-Sim: Warning: .minnctapersm ignored. 
GPGPU-Sim PTX: allocating shared region for "_Z13sgemmNT2_corePKfiS0_iPfiiS0_S0_ffi$__cuda_local_var_22999_35_non_const_bs" from 0x0 to 0x100 (shared memory space)
GPGPU-Sim PTX: instruction assembly for function '_Z13sgemmNT2_corePKfiS0_iPfiiS0_S0_ffi'...   done.
GPGPU-Sim: Warning: .minnctapersm ignored. 
GPGPU-Sim PTX: allocating shared region for "_Z23gen_kmul4_sgemmNT2_corePKfiS0_iPfiiiiS0_S0_ffi$__cuda_local_var_23105_35_non_const_bs" from 0x0 to 0x100 (shared memory space)
GPGPU-Sim PTX: instruction assembly for function '_Z23gen_kmul4_sgemmNT2_corePKfiS0_iPfiiiiS0_S0_ffi'...   done.
GPGPU-Sim: Warning: .minnctapersm ignored. 
GPGPU-Sim PTX: allocating shared region for "_Z17gen_sgemmNT2_corePKfiS0_iPfiiiiS0_S0_ffi$__cuda_local_var_23231_35_non_const_bs" from 0x0 to 0x100 (shared memory space)
GPGPU-Sim PTX: instruction assembly for function '_Z17gen_sgemmNT2_corePKfiS0_iPfiiiiS0_S0_ffi'...   done.
GPGPU-Sim PTX: finished parsing EMBEDDED .ptx file cudaDataLoader.15.sm_50.ptx
GPGPU-Sim PTX: Parsing cudaDataLoader.16.sm_50.ptx
GPGPU-Sim PTX: allocating global region for "cublasSgemmMagmaTexA" from 0x108 to 0x10c (global memory space)
GPGPU-Sim PTX: allocating global region for "cublasSgemmMagmaTexB" from 0x10c to 0x110 (global memory space)
GPGPU-Sim PTX: allocating shared region for "_Z25magma_lds128_sgemm_kernelILb0ELb0ELi6ELi5ELi3ELi3ELi3EEviiiPKfiS1_iPfiiiS1_S1_ffi$__cuda_local_var_24108_36_non_const_As_z" from 0x0 to 0x880 (shared memory space)
GPGPU-Sim PTX: allocating shared region for "_Z25magma_lds128_sgemm_kernelILb0ELb0ELi6ELi5ELi3ELi3ELi3EEviiiPKfiS1_iPfiiiS1_S1_ffi$__cuda_local_var_24109_36_non_const_Bs_z" from 0x880 to 0xd00 (shared memory space)
GPGPU-Sim PTX: instruction assembly for function '_Z25magma_lds128_sgemm_kernelILb0ELb0ELi6ELi5ELi3ELi3ELi3EEviiiPKfiS1_iPfiiiS1_S1_ffi'...   done.
GPGPU-Sim PTX: allocating shared region for "_Z25magma_lds128_sgemm_kernelILb0ELb1ELi6ELi6ELi4ELi3ELi4EEviiiPKfiS1_iPfiiiS1_S1_ffi$__cuda_local_var_24108_36_non_const_As_z" from 0x0 to 0x1100 (shared memory space)
GPGPU-Sim PTX: allocating shared region for "_Z25magma_lds128_sgemm_kernelILb0ELb1ELi6ELi6ELi4ELi3ELi4EEviiiPKfiS1_iPfiiiS1_S1_ffi$__cuda_local_var_24109_36_non_const_Bs_z" from 0x1100 to 0x2200 (shared memory space)
GPGPU-Sim PTX: instruction assembly for function '_Z25magma_lds128_sgemm_kernelILb0ELb1ELi6ELi6ELi4ELi3ELi4EEviiiPKfiS1_iPfiiiS1_S1_ffi'...   done.
GPGPU-Sim PTX: allocating shared region for "_Z25magma_lds128_sgemm_kernelILb1ELb0ELi6ELi6ELi4ELi3ELi4EEviiiPKfiS1_iPfiiiS1_S1_ffi$__cuda_local_var_24108_36_non_const_As_z" from 0x0 to 0x1100 (shared memory space)
GPGPU-Sim PTX: allocating shared region for "_Z25magma_lds128_sgemm_kernelILb1ELb0ELi6ELi6ELi4ELi3ELi4EEviiiPKfiS1_iPfiiiS1_S1_ffi$__cuda_local_var_24109_36_non_const_Bs_z" from 0x1100 to 0x2200 (shared memory space)
GPGPU-Sim PTX: instruction assembly for function '_Z25magma_lds128_sgemm_kernelILb1ELb0ELi6ELi6ELi4ELi3ELi4EEviiiPKfiS1_iPfiiiS1_S1_ffi'...   done.
GPGPU-Sim PTX: allocating shared region for "_Z25magma_lds128_sgemm_kernelILb1ELb1ELi6ELi6ELi3ELi3ELi4EEviiiPKfiS1_iPfiiiS1_S1_ffi$__cuda_local_var_24108_36_non_const_As_z" from 0x0 to 0x880 (shared memory space)
GPGPU-Sim PTX: allocating shared region for "_Z25magma_lds128_sgemm_kernelILb1ELb1ELi6ELi6ELi3ELi3ELi4EEviiiPKfiS1_iPfiiiS1_S1_ffi$__cuda_local_var_24109_36_non_const_Bs_z" from 0x880 to 0x1100 (shared memory space)
GPGPU-Sim PTX: instruction assembly for function '_Z25magma_lds128_sgemm_kernelILb1ELb1ELi6ELi6ELi3ELi3ELi4EEviiiPKfiS1_iPfiiiS1_S1_ffi'...   done.
GPGPU-Sim PTX: finished parsing EMBEDDED .ptx file cudaDataLoader.16.sm_50.ptx
GPGPU-Sim PTX: Parsing cudaDataLoader.17.sm_50.ptx
GPGPU-Sim PTX: allocating shared region for "_Z20block_dot_kernel_valIfLi0ELi512ELi4EEviiiT_PKS0_iiS2_iiS0_PS0_i$__cuda_local_var_24042_36_non_const_partialSum" from 0x0 to 0x8000 (shared memory space)
GPGPU-Sim PTX: instruction assembly for function '_Z20block_dot_kernel_valIfLi0ELi512ELi4EEviiiT_PKS0_iiS2_iiS0_PS0_i'...   done.
GPGPU-Sim PTX: allocating shared region for "_Z20block_dot_kernel_refIfLi0ELi512ELi4EEviiiPKT_S2_iiS2_iiS2_PS0_i$__cuda_local_var_24032_36_non_const_partialSum" from 0x0 to 0x8000 (shared memory space)
GPGPU-Sim PTX: instruction assembly for function '_Z20block_dot_kernel_refIfLi0ELi512ELi4EEviiiPKT_S2_iiS2_iiS2_PS0_i'...   done.
GPGPU-Sim PTX: allocating shared region for "_Z20block_dot_kernel_valIdLi0ELi256ELi4EEviiiT_PKS0_iiS2_iiS0_PS0_i$__cuda_local_var_24042_36_non_const_partialSum" from 0x0 to 0x8000 (shared memory space)
GPGPU-Sim PTX: instruction assembly for function '_Z20block_dot_kernel_valIdLi0ELi256ELi4EEviiiT_PKS0_iiS2_iiS0_PS0_i'...   done.
GPGPU-Sim PTX: allocating shared region for "_Z20block_dot_kernel_refIdLi0ELi256ELi4EEviiiPKT_S2_iiS2_iiS2_PS0_i$__cuda_local_var_24032_36_non_const_partialSum" from 0x0 to 0x8000 (shared memory space)
GPGPU-Sim PTX: instruction assembly for function '_Z20block_dot_kernel_refIdLi0ELi256ELi4EEviiiPKT_S2_iiS2_iiS2_PS0_i'...   done.
GPGPU-Sim PTX: allocating shared region for "_Z20block_dot_kernel_valI6float2Li0ELi256ELi4EEviiiT_PKS1_iiS3_iiS1_PS1_i$__cuda_local_var_24042_36_non_const_partialSum" from 0x0 to 0x8000 (shared memory space)
GPGPU-Sim PTX: instruction assembly for function '_Z20block_dot_kernel_valI6float2Li0ELi256ELi4EEviiiT_PKS1_iiS3_iiS1_PS1_i'...   done.
GPGPU-Sim PTX: allocating shared region for "_Z20block_dot_kernel_refI6float2Li0ELi256ELi4EEviiiPKT_S3_iiS3_iiS3_PS1_i$__cuda_local_var_24032_36_non_const_partialSum" from 0x0 to 0x8000 (shared memory space)
GPGPU-Sim PTX: instruction assembly for function '_Z20block_dot_kernel_refI6float2Li0ELi256ELi4EEviiiPKT_S3_iiS3_iiS3_PS1_i'...   done.
GPGPU-Sim PTX: allocating shared region for "_Z20block_dot_kernel_valI6float2Li1ELi256ELi4EEviiiT_PKS1_iiS3_iiS1_PS1_i$__cuda_local_var_24042_36_non_const_partialSum" from 0x0 to 0x8000 (shared memory space)
GPGPU-Sim PTX: instruction assembly for function '_Z20block_dot_kernel_valI6float2Li1ELi256ELi4EEviiiT_PKS1_iiS3_iiS1_PS1_i'...   done.
GPGPU-Sim PTX: allocating shared region for "_Z20block_dot_kernel_refI6float2Li1ELi256ELi4EEviiiPKT_S3_iiS3_iiS3_PS1_i$__cuda_local_var_24032_36_non_const_partialSum" from 0x0 to 0x8000 (shared memory space)
GPGPU-Sim PTX: instruction assembly for function '_Z20block_dot_kernel_refI6float2Li1ELi256ELi4EEviiiPKT_S3_iiS3_iiS3_PS1_i'...   done.
GPGPU-Sim PTX: allocating shared region for "_Z20block_dot_kernel_valI7double2Li0ELi128ELi4EEviiiT_PKS1_iiS3_iiS1_PS1_i$__cuda_local_var_24042_36_non_const_partialSum" from 0x0 to 0x8000 (shared memory space)
GPGPU-Sim PTX: instruction assembly for function '_Z20block_dot_kernel_valI7double2Li0ELi128ELi4EEviiiT_PKS1_iiS3_iiS1_PS1_i'...   done.
GPGPU-Sim PTX: allocating shared region for "_Z20block_dot_kernel_refI7double2Li0ELi128ELi4EEviiiPKT_S3_iiS3_iiS3_PS1_i$__cuda_local_var_24032_36_non_const_partialSum" from 0x0 to 0x8000 (shared memory space)
GPGPU-Sim PTX: instruction assembly for function '_Z20block_dot_kernel_refI7double2Li0ELi128ELi4EEviiiPKT_S3_iiS3_iiS3_PS1_i'...   done.
GPGPU-Sim PTX: allocating shared region for "_Z20block_dot_kernel_valI7double2Li1ELi128ELi4EEviiiT_PKS1_iiS3_iiS1_PS1_i$__cuda_local_var_24042_36_non_const_partialSum" from 0x0 to 0x8000 (shared memory space)
GPGPU-Sim PTX: instruction assembly for function '_Z20block_dot_kernel_valI7double2Li1ELi128ELi4EEviiiT_PKS1_iiS3_iiS1_PS1_i'...   done.
GPGPU-Sim PTX: allocating shared region for "_Z20block_dot_kernel_refI7double2Li1ELi128ELi4EEviiiPKT_S3_iiS3_iiS3_PS1_i$__cuda_local_var_24032_36_non_const_partialSum" from 0x0 to 0x8000 (shared memory space)
GPGPU-Sim PTX: instruction assembly for function '_Z20block_dot_kernel_refI7double2Li1ELi128ELi4EEviiiPKT_S3_iiS3_iiS3_PS1_i'...   done.
GPGPU-Sim PTX: finished parsing EMBEDDED .ptx file cudaDataLoader.17.sm_50.ptx
GPGPU-Sim PTX: Parsing cudaDataLoader.19.sm_50.ptx
GPGPU-Sim PTX: finished parsing EMBEDDED .ptx file cudaDataLoader.19.sm_50.ptx
GPGPU-Sim PTX: Parsing cudaDataLoader.20.sm_50.ptx
GPGPU-Sim: Warning: .minnctapersm ignored. 
GPGPU-Sim PTX: allocating shared region for "_Z16gemmSN_NN_kernelIdddLi128ELi2ELi4ELi8ELi2ELi4EEv22cublasGemmSmallNParamsIT_T0_T1_EPKS1_S6_S1_S1_i$__cuda_local_var_24523_36_non_const_BB" from 0x0 to 0x2000 (shared memory space)
GPGPU-Sim PTX: allocating shared region for "_Z16gemmSN_NN_kernelIdddLi128ELi2ELi4ELi8ELi2ELi4EEv22cublasGemmSmallNParamsIT_T0_T1_EPKS1_S6_S1_S1_i$__cuda_local_var_24524_36_non_const_SDOT" from 0x2000 to 0x2800 (shared memory space)
GPGPU-Sim PTX: instruction assembly for function '_Z16gemmSN_NN_kernelIdddLi128ELi2ELi4ELi8ELi2ELi4EEv22cublasGemmSmallNParamsIT_T0_T1_EPKS1_S6_S1_S1_i'...   done.
GPGPU-Sim: Warning: .minnctapersm ignored. 
GPGPU-Sim PTX: allocating shared region for "_Z16gemmSN_NN_kernelIdddLi128ELi2ELi4ELi8ELi3ELi4EEv22cublasGemmSmallNParamsIT_T0_T1_EPKS1_S6_S1_S1_i$__cuda_local_var_24523_36_non_const_BB" from 0x0 to 0x3000 (shared memory space)
GPGPU-Sim PTX: allocating shared region for "_Z16gemmSN_NN_kernelIdddLi128ELi2ELi4ELi8ELi3ELi4EEv22cublasGemmSmallNParamsIT_T0_T1_EPKS1_S6_S1_S1_i$__cuda_local_var_24524_36_non_const_SDOT" from 0x3000 to 0x3c00 (shared memory space)
GPGPU-Sim PTX: instruction assembly for function '_Z16gemmSN_NN_kernelIdddLi128ELi2ELi4ELi8ELi3ELi4EEv22cublasGemmSmallNParamsIT_T0_T1_EPKS1_S6_S1_S1_i'...   done.
GPGPU-Sim: Warning: .minnctapersm ignored. 
GPGPU-Sim PTX: allocating shared region for "_Z16gemmSN_NN_kernelIdddLi128ELi2ELi4ELi8ELi4ELi4EEv22cublasGemmSmallNParamsIT_T0_T1_EPKS1_S6_S1_S1_i$__cuda_local_var_24523_36_non_const_BB" from 0x0 to 0x4000 (shared memory space)
GPGPU-Sim PTX: allocating shared region for "_Z16gemmSN_NN_kernelIdddLi128ELi2ELi4ELi8ELi4ELi4EEv22cublasGemmSmallNParamsIT_T0_T1_EPKS1_S6_S1_S1_i$__cuda_local_var_24524_36_non_const_SDOT" from 0x4000 to 0x5000 (shared memory space)
GPGPU-Sim PTX: instruction assembly for function '_Z16gemmSN_NN_kernelIdddLi128ELi2ELi4ELi8ELi4ELi4EEv22cublasGemmSmallNParamsIT_T0_T1_EPKS1_S6_S1_S1_i'...   done.
GPGPU-Sim: Warning: .minnctapersm ignored. 
GPGPU-Sim PTX: allocating shared region for "_Z16gemmSN_NN_kernelIdddLi128ELi2ELi4ELi8ELi5ELi4EEv22cublasGemmSmallNParamsIT_T0_T1_EPKS1_S6_S1_S1_i$__cuda_local_var_24523_36_non_const_BB" from 0x0 to 0x5000 (shared memory space)
GPGPU-Sim PTX: allocating shared region for "_Z16gemmSN_NN_kernelIdddLi128ELi2ELi4ELi8ELi5ELi4EEv22cublasGemmSmallNParamsIT_T0_T1_EPKS1_S6_S1_S1_i$__cuda_local_var_24524_36_non_const_SDOT" from 0x5000 to 0x6400 (shared memory space)
GPGPU-Sim PTX: instruction assembly for function '_Z16gemmSN_NN_kernelIdddLi128ELi2ELi4ELi8ELi5ELi4EEv22cublasGemmSmallNParamsIT_T0_T1_EPKS1_S6_S1_S1_i'...   done.
GPGPU-Sim: Warning: .minnctapersm ignored. 
GPGPU-Sim PTX: allocating shared region for "_Z16gemmSN_NN_kernelIdddLi128ELi2ELi4ELi8ELi6ELi4EEv22cublasGemmSmallNParamsIT_T0_T1_EPKS1_S6_S1_S1_i$__cuda_local_var_24523_36_non_const_BB" from 0x0 to 0x6000 (shared memory space)
GPGPU-Sim PTX: allocating shared region for "_Z16gemmSN_NN_kernelIdddLi128ELi2ELi4ELi8ELi6ELi4EEv22cublasGemmSmallNParamsIT_T0_T1_EPKS1_S6_S1_S1_i$__cuda_local_var_24524_36_non_const_SDOT" from 0x6000 to 0x7800 (shared memory space)
GPGPU-Sim PTX: instruction assembly for function '_Z16gemmSN_NN_kernelIdddLi128ELi2ELi4ELi8ELi6ELi4EEv22cublasGemmSmallNParamsIT_T0_T1_EPKS1_S6_S1_S1_i'...   done.
GPGPU-Sim: Warning: .minnctapersm ignored. 
GPGPU-Sim PTX: allocating shared region for "_Z16gemmSN_NN_kernelIdddLi128ELi2ELi4ELi8ELi7ELi4EEv22cublasGemmSmallNParamsIT_T0_T1_EPKS1_S6_S1_S1_i$__cuda_local_var_24523_36_non_const_BB" from 0x0 to 0x7000 (shared memory space)
GPGPU-Sim PTX: allocating shared region for "_Z16gemmSN_NN_kernelIdddLi128ELi2ELi4ELi8ELi7ELi4EEv22cublasGemmSmallNParamsIT_T0_T1_EPKS1_S6_S1_S1_i$__cuda_local_var_24524_36_non_const_SDOT" from 0x7000 to 0x8c00 (shared memory space)
GPGPU-Sim PTX: instruction assembly for function '_Z16gemmSN_NN_kernelIdddLi128ELi2ELi4ELi8ELi7ELi4EEv22cublasGemmSmallNParamsIT_T0_T1_EPKS1_S6_S1_S1_i'...   done.
GPGPU-Sim: Warning: .minnctapersm ignored. 
GPGPU-Sim PTX: allocating shared region for "_Z16gemmSN_NN_kernelIdddLi128ELi2ELi4ELi8ELi8ELi4EEv22cublasGemmSmallNParamsIT_T0_T1_EPKS1_S6_S1_S1_i$__cuda_local_var_24523_36_non_const_BB" from 0x0 to 0x8000 (shared memory space)
GPGPU-Sim PTX: allocating shared region for "_Z16gemmSN_NN_kernelIdddLi128ELi2ELi4ELi8ELi8ELi4EEv22cublasGemmSmallNParamsIT_T0_T1_EPKS1_S6_S1_S1_i$__cuda_local_var_24524_36_non_const_SDOT" from 0x8000 to 0xa000 (shared memory space)
GPGPU-Sim PTX: instruction assembly for function '_Z16gemmSN_NN_kernelIdddLi128ELi2ELi4ELi8ELi8ELi4EEv22cublasGemmSmallNParamsIT_T0_T1_EPKS1_S6_S1_S1_i'...   done.
GPGPU-Sim: Warning: .minnctapersm ignored. 
GPGPU-Sim PTX: allocating shared region for "_Z16gemmSN_NN_kernelIdddLi256ELi4ELi2ELi8ELi2ELi4EEv22cublasGemmSmallNParamsIT_T0_T1_EPKS1_S6_S1_S1_i$__cuda_local_var_24523_36_non_const_BB" from 0x0 to 0x2000 (shared memory space)
GPGPU-Sim PTX: allocating shared region for "_Z16gemmSN_NN_kernelIdddLi256ELi4ELi2ELi8ELi2ELi4EEv22cublasGemmSmallNParamsIT_T0_T1_EPKS1_S6_S1_S1_i$__cuda_local_var_24524_36_non_const_SDOT" from 0x2000 to 0x3000 (shared memory space)
GPGPU-Sim PTX: instruction assembly for function '_Z16gemmSN_NN_kernelIdddLi256ELi4ELi2ELi8ELi2ELi4EEv22cublasGemmSmallNParamsIT_T0_T1_EPKS1_S6_S1_S1_i'...   done.
GPGPU-Sim: Warning: .minnctapersm ignored. 
GPGPU-Sim PTX: allocating shared region for "_Z16gemmSN_NN_kernelIdddLi256ELi4ELi2ELi8ELi3ELi4EEv22cublasGemmSmallNParamsIT_T0_T1_EPKS1_S6_S1_S1_i$__cuda_local_var_24523_36_non_const_BB" from 0x0 to 0x3000 (shared memory space)
GPGPU-Sim PTX: allocating shared region for "_Z16gemmSN_NN_kernelIdddLi256ELi4ELi2ELi8ELi3ELi4EEv22cublasGemmSmallNParamsIT_T0_T1_EPKS1_S6_S1_S1_i$__cuda_local_var_24524_36_non_const_SDOT" from 0x3000 to 0x4800 (shared memory space)
GPGPU-Sim PTX: instruction assembly for function '_Z16gemmSN_NN_kernelIdddLi256ELi4ELi2ELi8ELi3ELi4EEv22cublasGemmSmallNParamsIT_T0_T1_EPKS1_S6_S1_S1_i'...   done.
GPGPU-Sim: Warning: .minnctapersm ignored. 
GPGPU-Sim PTX: allocating shared region for "_Z16gemmSN_NN_kernelIdddLi256ELi4ELi2ELi8ELi4ELi4EEv22cublasGemmSmallNParamsIT_T0_T1_EPKS1_S6_S1_S1_i$__cuda_local_var_24523_36_non_const_BB" from 0x0 to 0x4000 (shared memory space)
GPGPU-Sim PTX: allocating shared region for "_Z16gemmSN_NN_kernelIdddLi256ELi4ELi2ELi8ELi4ELi4EEv22cublasGemmSmallNParamsIT_T0_T1_EPKS1_S6_S1_S1_i$__cuda_local_var_24524_36_non_const_SDOT" from 0x4000 to 0x6000 (shared memory space)
GPGPU-Sim PTX: instruction assembly for function '_Z16gemmSN_NN_kernelIdddLi256ELi4ELi2ELi8ELi4ELi4EEv22cublasGemmSmallNParamsIT_T0_T1_EPKS1_S6_S1_S1_i'...   done.
GPGPU-Sim: Warning: .minnctapersm ignored. 
GPGPU-Sim PTX: allocating shared region for "_Z16gemmSN_NN_kernelIdddLi256ELi4ELi2ELi8ELi5ELi4EEv22cublasGemmSmallNParamsIT_T0_T1_EPKS1_S6_S1_S1_i$__cuda_local_var_24523_36_non_const_BB" from 0x0 to 0x5000 (shared memory space)
GPGPU-Sim PTX: allocating shared region for "_Z16gemmSN_NN_kernelIdddLi256ELi4ELi2ELi8ELi5ELi4EEv22cublasGemmSmallNParamsIT_T0_T1_EPKS1_S6_S1_S1_i$__cuda_local_var_24524_36_non_const_SDOT" from 0x5000 to 0x7800 (shared memory space)
GPGPU-Sim PTX: instruction assembly for function '_Z16gemmSN_NN_kernelIdddLi256ELi4ELi2ELi8ELi5ELi4EEv22cublasGemmSmallNParamsIT_T0_T1_EPKS1_S6_S1_S1_i'...   done.
GPGPU-Sim: Warning: .minnctapersm ignored. 
GPGPU-Sim PTX: allocating shared region for "_Z16gemmSN_NN_kernelIdddLi256ELi4ELi2ELi8ELi6ELi4EEv22cublasGemmSmallNParamsIT_T0_T1_EPKS1_S6_S1_S1_i$__cuda_local_var_24523_36_non_const_BB" from 0x0 to 0x6000 (shared memory space)
GPGPU-Sim PTX: allocating shared region for "_Z16gemmSN_NN_kernelIdddLi256ELi4ELi2ELi8ELi6ELi4EEv22cublasGemmSmallNParamsIT_T0_T1_EPKS1_S6_S1_S1_i$__cuda_local_var_24524_36_non_const_SDOT" from 0x6000 to 0x9000 (shared memory space)
GPGPU-Sim PTX: instruction assembly for function '_Z16gemmSN_NN_kernelIdddLi256ELi4ELi2ELi8ELi6ELi4EEv22cublasGemmSmallNParamsIT_T0_T1_EPKS1_S6_S1_S1_i'...   done.
GPGPU-Sim: Warning: .minnctapersm ignored. 
GPGPU-Sim PTX: allocating shared region for "_Z16gemmSN_NN_kernelIdddLi256ELi4ELi2ELi8ELi7ELi4EEv22cublasGemmSmallNParamsIT_T0_T1_EPKS1_S6_S1_S1_i$__cuda_local_var_24523_36_non_const_BB" from 0x0 to 0x7000 (shared memory space)
GPGPU-Sim PTX: allocating shared region for "_Z16gemmSN_NN_kernelIdddLi256ELi4ELi2ELi8ELi7ELi4EEv22cublasGemmSmallNParamsIT_T0_T1_EPKS1_S6_S1_S1_i$__cuda_local_var_24524_36_non_const_SDOT" from 0x7000 to 0xa800 (shared memory space)
GPGPU-Sim PTX: instruction assembly for function '_Z16gemmSN_NN_kernelIdddLi256ELi4ELi2ELi8ELi7ELi4EEv22cublasGemmSmallNParamsIT_T0_T1_EPKS1_S6_S1_S1_i'...   done.
GPGPU-Sim: Warning: .minnctapersm ignored. 
GPGPU-Sim PTX: allocating shared region for "_Z16gemmSN_NN_kernelIdddLi256ELi4ELi2ELi8ELi8ELi4EEv22cublasGemmSmallNParamsIT_T0_T1_EPKS1_S6_S1_S1_i$__cuda_local_var_24523_36_non_const_BB" from 0x0 to 0x8000 (shared memory space)
GPGPU-Sim PTX: allocating shared region for "_Z16gemmSN_NN_kernelIdddLi256ELi4ELi2ELi8ELi8ELi4EEv22cublasGemmSmallNParamsIT_T0_T1_EPKS1_S6_S1_S1_i$__cuda_local_var_24524_36_non_const_SDOT" from 0x8000 to 0xc000 (shared memory space)
GPGPU-Sim PTX: instruction assembly for function '_Z16gemmSN_NN_kernelIdddLi256ELi4ELi2ELi8ELi8ELi4EEv22cublasGemmSmallNParamsIT_T0_T1_EPKS1_S6_S1_S1_i'...   done.
GPGPU-Sim PTX: allocating shared region for "_Z16gemmSN_TN_kernelIdddLi128ELi16ELi2ELi4ELi2ELi2ELb1EEviiiPKT0_iS2_iPT1_iPKT_S7_S5_S5_ii$__cuda_local_var_24263_36_non_const_BB" from 0x0 to 0x1000 (shared memory space)
GPGPU-Sim PTX: allocating shared region for "_Z16gemmSN_TN_kernelIdddLi128ELi16ELi2ELi4ELi2ELi2ELb1EEviiiPKT0_iS2_iPT1_iPKT_S7_S5_S5_ii$__cuda_local_var_24264_36_non_const_SDOT" from 0x1000 to 0x1800 (shared memory space)
GPGPU-Sim PTX: instruction assembly for function '_Z16gemmSN_TN_kernelIdddLi128ELi16ELi2ELi4ELi2ELi2ELb1EEviiiPKT0_iS2_iPT1_iPKT_S7_S5_S5_ii'...   done.
GPGPU-Sim PTX: allocating shared region for "_Z16gemmSN_TN_kernelIdddLi128ELi16ELi2ELi4ELi4ELi4ELb0EEviiiPKT0_iS2_iPT1_iPKT_S7_S5_S5_ii$__cuda_local_var_24263_36_non_const_BB" from 0x0 to 0x2000 (shared memory space)
GPGPU-Sim PTX: allocating shared region for "_Z16gemmSN_TN_kernelIdddLi128ELi16ELi2ELi4ELi4ELi4ELb0EEviiiPKT0_iS2_iPT1_iPKT_S7_S5_S5_ii$__cuda_local_var_24264_36_non_const_SDOT" from 0x2000 to 0x3000 (shared memory space)
GPGPU-Sim PTX: instruction assembly for function '_Z16gemmSN_TN_kernelIdddLi128ELi16ELi2ELi4ELi4ELi4ELb0EEviiiPKT0_iS2_iPT1_iPKT_S7_S5_S5_ii'...   done.
GPGPU-Sim PTX: allocating shared region for "_Z16gemmSN_TN_kernelIdddLi128ELi16ELi2ELi4ELi4ELi4ELb1EEviiiPKT0_iS2_iPT1_iPKT_S7_S5_S5_ii$__cuda_local_var_24263_36_non_const_BB" from 0x0 to 0x2000 (shared memory space)
GPGPU-Sim PTX: allocating shared region for "_Z16gemmSN_TN_kernelIdddLi128ELi16ELi2ELi4ELi4ELi4ELb1EEviiiPKT0_iS2_iPT1_iPKT_S7_S5_S5_ii$__cuda_local_var_24264_36_non_const_SDOT" from 0x2000 to 0x3000 (shared memory space)
GPGPU-Sim PTX: instruction assembly for function '_Z16gemmSN_TN_kernelIdddLi128ELi16ELi2ELi4ELi4ELi4ELb1EEviiiPKT0_iS2_iPT1_iPKT_S7_S5_S5_ii'...   done.
GPGPU-Sim PTX: allocating shared region for "_Z16gemmSN_TN_kernelIdddLi128ELi16ELi2ELi4ELi6ELi7ELb0EEviiiPKT0_iS2_iPT1_iPKT_S7_S5_S5_ii$__cuda_local_var_24263_36_non_const_BB" from 0x0 to 0x3800 (shared memory space)
GPGPU-Sim PTX: allocating shared region for "_Z16gemmSN_TN_kernelIdddLi128ELi16ELi2ELi4ELi6ELi7ELb0EEviiiPKT0_iS2_iPT1_iPKT_S7_S5_S5_ii$__cuda_local_var_24264_36_non_const_SDOT" from 0x3800 to 0x5400 (shared memory space)
GPGPU-Sim PTX: instruction assembly for function '_Z16gemmSN_TN_kernelIdddLi128ELi16ELi2ELi4ELi6ELi7ELb0EEviiiPKT0_iS2_iPT1_iPKT_S7_S5_S5_ii'...   done.
GPGPU-Sim PTX: allocating shared region for "_Z16gemmSN_TN_kernelIdddLi128ELi16ELi2ELi4ELi8ELi9ELb0EEviiiPKT0_iS2_iPT1_iPKT_S7_S5_S5_ii$__cuda_local_var_24263_36_non_const_BB" from 0x0 to 0x4800 (shared memory space)
GPGPU-Sim PTX: allocating shared region for "_Z16gemmSN_TN_kernelIdddLi128ELi16ELi2ELi4ELi8ELi9ELb0EEviiiPKT0_iS2_iPT1_iPKT_S7_S5_S5_ii$__cuda_local_var_24264_36_non_const_SDOT" from 0x4800 to 0x6c00 (shared memory space)
GPGPU-Sim PTX: instruction assembly for function '_Z16gemmSN_TN_kernelIdddLi128ELi16ELi2ELi4ELi8ELi9ELb0EEviiiPKT0_iS2_iPT1_iPKT_S7_S5_S5_ii'...   done.
GPGPU-Sim PTX: allocating shared region for "_Z16gemmSN_TN_kernelIdddLi128ELi16ELi2ELi4ELi10ELi11ELb0EEviiiPKT0_iS2_iPT1_iPKT_S7_S5_S5_ii$__cuda_local_var_24263_36_non_const_BB" from 0x0 to 0x5800 (shared memory space)
GPGPU-Sim PTX: allocating shared region for "_Z16gemmSN_TN_kernelIdddLi128ELi16ELi2ELi4ELi10ELi11ELb0EEviiiPKT0_iS2_iPT1_iPKT_S7_S5_S5_ii$__cuda_local_var_24264_36_non_const_SDOT" from 0x5800 to 0x8400 (shared memory space)
GPGPU-Sim PTX: instruction assembly for function '_Z16gemmSN_TN_kernelIdddLi128ELi16ELi2ELi4ELi10ELi11ELb0EEviiiPKT0_iS2_iPT1_iPKT_S7_S5_S5_ii'...   done.
GPGPU-Sim PTX: allocating shared region for "_Z16gemmSN_TN_kernelIdddLi128ELi16ELi2ELi4ELi14ELi15ELb0EEviiiPKT0_iS2_iPT1_iPKT_S7_S5_S5_ii$__cuda_local_var_24263_36_non_const_BB" from 0x0 to 0x7800 (shared memory space)
GPGPU-Sim PTX: allocating shared region for "_Z16gemmSN_TN_kernelIdddLi128ELi16ELi2ELi4ELi14ELi15ELb0EEviiiPKT0_iS2_iPT1_iPKT_S7_S5_S5_ii$__cuda_local_var_24264_36_non_const_SDOT" from 0x7800 to 0xb400 (shared memory space)
GPGPU-Sim PTX: instruction assembly for function '_Z16gemmSN_TN_kernelIdddLi128ELi16ELi2ELi4ELi14ELi15ELb0EEviiiPKT0_iS2_iPT1_iPKT_S7_S5_S5_ii'...   done.
GPGPU-Sim: Warning: .minnctapersm ignored. 
GPGPU-Sim PTX: allocating shared region for "_Z16gemmSN_NN_kernelIfffLi128ELi2ELi4ELi8ELi2ELi4EEv22cublasGemmSmallNParamsIT_T0_T1_EPKS1_S6_S1_S1_i$__cuda_local_var_24523_36_non_const_BB" from 0x0 to 0x1000 (shared memory space)
GPGPU-Sim PTX: allocating shared region for "_Z16gemmSN_NN_kernelIfffLi128ELi2ELi4ELi8ELi2ELi4EEv22cublasGemmSmallNParamsIT_T0_T1_EPKS1_S6_S1_S1_i$__cuda_local_var_24524_36_non_const_SDOT" from 0x1000 to 0x1400 (shared memory space)
GPGPU-Sim PTX: instruction assembly for function '_Z16gemmSN_NN_kernelIfffLi128ELi2ELi4ELi8ELi2ELi4EEv22cublasGemmSmallNParamsIT_T0_T1_EPKS1_S6_S1_S1_i'...   done.
GPGPU-Sim: Warning: .minnctapersm ignored. 
GPGPU-Sim PTX: allocating shared region for "_Z16gemmSN_NN_kernelIfffLi128ELi2ELi4ELi8ELi3ELi4EEv22cublasGemmSmallNParamsIT_T0_T1_EPKS1_S6_S1_S1_i$__cuda_local_var_24523_36_non_const_BB" from 0x0 to 0x1800 (shared memory space)
GPGPU-Sim PTX: allocating shared region for "_Z16gemmSN_NN_kernelIfffLi128ELi2ELi4ELi8ELi3ELi4EEv22cublasGemmSmallNParamsIT_T0_T1_EPKS1_S6_S1_S1_i$__cuda_local_var_24524_36_non_const_SDOT" from 0x1800 to 0x1e00 (shared memory space)
GPGPU-Sim PTX: instruction assembly for function '_Z16gemmSN_NN_kernelIfffLi128ELi2ELi4ELi8ELi3ELi4EEv22cublasGemmSmallNParamsIT_T0_T1_EPKS1_S6_S1_S1_i'...   done.
GPGPU-Sim: Warning: .minnctapersm ignored. 
GPGPU-Sim PTX: allocating shared region for "_Z16gemmSN_NN_kernelIfffLi128ELi2ELi4ELi8ELi4ELi4EEv22cublasGemmSmallNParamsIT_T0_T1_EPKS1_S6_S1_S1_i$__cuda_local_var_24523_36_non_const_BB" from 0x0 to 0x2000 (shared memory space)
GPGPU-Sim PTX: allocating shared region for "_Z16gemmSN_NN_kernelIfffLi128ELi2ELi4ELi8ELi4ELi4EEv22cublasGemmSmallNParamsIT_T0_T1_EPKS1_S6_S1_S1_i$__cuda_local_var_24524_36_non_const_SDOT" from 0x2000 to 0x2800 (shared memory space)
GPGPU-Sim PTX: instruction assembly for function '_Z16gemmSN_NN_kernelIfffLi128ELi2ELi4ELi8ELi4ELi4EEv22cublasGemmSmallNParamsIT_T0_T1_EPKS1_S6_S1_S1_i'...   done.
GPGPU-Sim: Warning: .minnctapersm ignored. 
GPGPU-Sim PTX: allocating shared region for "_Z16gemmSN_NN_kernelIfffLi128ELi2ELi4ELi8ELi5ELi4EEv22cublasGemmSmallNParamsIT_T0_T1_EPKS1_S6_S1_S1_i$__cuda_local_var_24523_36_non_const_BB" from 0x0 to 0x2800 (shared memory space)
GPGPU-Sim PTX: allocating shared region for "_Z16gemmSN_NN_kernelIfffLi128ELi2ELi4ELi8ELi5ELi4EEv22cublasGemmSmallNParamsIT_T0_T1_EPKS1_S6_S1_S1_i$__cuda_local_var_24524_36_non_const_SDOT" from 0x2800 to 0x3200 (shared memory space)
GPGPU-Sim PTX: instruction assembly for function '_Z16gemmSN_NN_kernelIfffLi128ELi2ELi4ELi8ELi5ELi4EEv22cublasGemmSmallNParamsIT_T0_T1_EPKS1_S6_S1_S1_i'...   done.
GPGPU-Sim: Warning: .minnctapersm ignored. 
GPGPU-Sim PTX: allocating shared region for "_Z16gemmSN_NN_kernelIfffLi128ELi2ELi4ELi8ELi6ELi4EEv22cublasGemmSmallNParamsIT_T0_T1_EPKS1_S6_S1_S1_i$__cuda_local_var_24523_36_non_const_BB" from 0x0 to 0x3000 (shared memory space)
GPGPU-Sim PTX: allocating shared region for "_Z16gemmSN_NN_kernelIfffLi128ELi2ELi4ELi8ELi6ELi4EEv22cublasGemmSmallNParamsIT_T0_T1_EPKS1_S6_S1_S1_i$__cuda_local_var_24524_36_non_const_SDOT" from 0x3000 to 0x3c00 (shared memory space)
GPGPU-Sim PTX: instruction assembly for function '_Z16gemmSN_NN_kernelIfffLi128ELi2ELi4ELi8ELi6ELi4EEv22cublasGemmSmallNParamsIT_T0_T1_EPKS1_S6_S1_S1_i'...   done.
GPGPU-Sim: Warning: .minnctapersm ignored. 
GPGPU-Sim PTX: allocating shared region for "_Z16gemmSN_NN_kernelIfffLi128ELi2ELi4ELi8ELi7ELi4EEv22cublasGemmSmallNParamsIT_T0_T1_EPKS1_S6_S1_S1_i$__cuda_local_var_24523_36_non_const_BB" from 0x0 to 0x3800 (shared memory space)
GPGPU-Sim PTX: allocating shared region for "_Z16gemmSN_NN_kernelIfffLi128ELi2ELi4ELi8ELi7ELi4EEv22cublasGemmSmallNParamsIT_T0_T1_EPKS1_S6_S1_S1_i$__cuda_local_var_24524_36_non_const_SDOT" from 0x3800 to 0x4600 (shared memory space)
GPGPU-Sim PTX: instruction assembly for function '_Z16gemmSN_NN_kernelIfffLi128ELi2ELi4ELi8ELi7ELi4EEv22cublasGemmSmallNParamsIT_T0_T1_EPKS1_S6_S1_S1_i'...   done.
GPGPU-Sim: Warning: .minnctapersm ignored. 
GPGPU-Sim PTX: allocating shared region for "_Z16gemmSN_NN_kernelIfffLi128ELi2ELi4ELi8ELi8ELi4EEv22cublasGemmSmallNParamsIT_T0_T1_EPKS1_S6_S1_S1_i$__cuda_local_var_24523_36_non_const_BB" from 0x0 to 0x4000 (shared memory space)
GPGPU-Sim PTX: allocating shared region for "_Z16gemmSN_NN_kernelIfffLi128ELi2ELi4ELi8ELi8ELi4EEv22cublasGemmSmallNParamsIT_T0_T1_EPKS1_S6_S1_S1_i$__cuda_local_var_24524_36_non_const_SDOT" from 0x4000 to 0x5000 (shared memory space)
GPGPU-Sim PTX: instruction assembly for function '_Z16gemmSN_NN_kernelIfffLi128ELi2ELi4ELi8ELi8ELi4EEv22cublasGemmSmallNParamsIT_T0_T1_EPKS1_S6_S1_S1_i'...   done.
GPGPU-Sim: Warning: .minnctapersm ignored. 
GPGPU-Sim PTX: allocating shared region for "_Z16gemmSN_NN_kernelIfffLi256ELi4ELi2ELi8ELi2ELi4EEv22cublasGemmSmallNParamsIT_T0_T1_EPKS1_S6_S1_S1_i$__cuda_local_var_24523_36_non_const_BB" from 0x0 to 0x1000 (shared memory space)
GPGPU-Sim PTX: allocating shared region for "_Z16gemmSN_NN_kernelIfffLi256ELi4ELi2ELi8ELi2ELi4EEv22cublasGemmSmallNParamsIT_T0_T1_EPKS1_S6_S1_S1_i$__cuda_local_var_24524_36_non_const_SDOT" from 0x1000 to 0x1800 (shared memory space)
GPGPU-Sim PTX: instruction assembly for function '_Z16gemmSN_NN_kernelIfffLi256ELi4ELi2ELi8ELi2ELi4EEv22cublasGemmSmallNParamsIT_T0_T1_EPKS1_S6_S1_S1_i'...   done.
GPGPU-Sim: Warning: .minnctapersm ignored. 
GPGPU-Sim PTX: allocating shared region for "_Z16gemmSN_NN_kernelIfffLi256ELi4ELi2ELi8ELi3ELi4EEv22cublasGemmSmallNParamsIT_T0_T1_EPKS1_S6_S1_S1_i$__cuda_local_var_24523_36_non_const_BB" from 0x0 to 0x1800 (shared memory space)
GPGPU-Sim PTX: allocating shared region for "_Z16gemmSN_NN_kernelIfffLi256ELi4ELi2ELi8ELi3ELi4EEv22cublasGemmSmallNParamsIT_T0_T1_EPKS1_S6_S1_S1_i$__cuda_local_var_24524_36_non_const_SDOT" from 0x1800 to 0x2400 (shared memory space)
GPGPU-Sim PTX: instruction assembly for function '_Z16gemmSN_NN_kernelIfffLi256ELi4ELi2ELi8ELi3ELi4EEv22cublasGemmSmallNParamsIT_T0_T1_EPKS1_S6_S1_S1_i'...   done.
GPGPU-Sim: Warning: .minnctapersm ignored. 
GPGPU-Sim PTX: allocating shared region for "_Z16gemmSN_NN_kernelIfffLi256ELi4ELi2ELi8ELi4ELi4EEv22cublasGemmSmallNParamsIT_T0_T1_EPKS1_S6_S1_S1_i$__cuda_local_var_24523_36_non_const_BB" from 0x0 to 0x2000 (shared memory space)
GPGPU-Sim PTX: allocating shared region for "_Z16gemmSN_NN_kernelIfffLi256ELi4ELi2ELi8ELi4ELi4EEv22cublasGemmSmallNParamsIT_T0_T1_EPKS1_S6_S1_S1_i$__cuda_local_var_24524_36_non_const_SDOT" from 0x2000 to 0x3000 (shared memory space)
GPGPU-Sim PTX: instruction assembly for function '_Z16gemmSN_NN_kernelIfffLi256ELi4ELi2ELi8ELi4ELi4EEv22cublasGemmSmallNParamsIT_T0_T1_EPKS1_S6_S1_S1_i'...   done.
GPGPU-Sim: Warning: .minnctapersm ignored. 
GPGPU-Sim PTX: allocating shared region for "_Z16gemmSN_NN_kernelIfffLi256ELi4ELi2ELi8ELi5ELi4EEv22cublasGemmSmallNParamsIT_T0_T1_EPKS1_S6_S1_S1_i$__cuda_local_var_24523_36_non_const_BB" from 0x0 to 0x2800 (shared memory space)
GPGPU-Sim PTX: allocating shared region for "_Z16gemmSN_NN_kernelIfffLi256ELi4ELi2ELi8ELi5ELi4EEv22cublasGemmSmallNParamsIT_T0_T1_EPKS1_S6_S1_S1_i$__cuda_local_var_24524_36_non_const_SDOT" from 0x2800 to 0x3c00 (shared memory space)
GPGPU-Sim PTX: instruction assembly for function '_Z16gemmSN_NN_kernelIfffLi256ELi4ELi2ELi8ELi5ELi4EEv22cublasGemmSmallNParamsIT_T0_T1_EPKS1_S6_S1_S1_i'...   done.
GPGPU-Sim: Warning: .minnctapersm ignored. 
GPGPU-Sim PTX: allocating shared region for "_Z16gemmSN_NN_kernelIfffLi256ELi4ELi2ELi8ELi6ELi4EEv22cublasGemmSmallNParamsIT_T0_T1_EPKS1_S6_S1_S1_i$__cuda_local_var_24523_36_non_const_BB" from 0x0 to 0x3000 (shared memory space)
GPGPU-Sim PTX: allocating shared region for "_Z16gemmSN_NN_kernelIfffLi256ELi4ELi2ELi8ELi6ELi4EEv22cublasGemmSmallNParamsIT_T0_T1_EPKS1_S6_S1_S1_i$__cuda_local_var_24524_36_non_const_SDOT" from 0x3000 to 0x4800 (shared memory space)
GPGPU-Sim PTX: instruction assembly for function '_Z16gemmSN_NN_kernelIfffLi256ELi4ELi2ELi8ELi6ELi4EEv22cublasGemmSmallNParamsIT_T0_T1_EPKS1_S6_S1_S1_i'...   done.
GPGPU-Sim: Warning: .minnctapersm ignored. 
GPGPU-Sim PTX: allocating shared region for "_Z16gemmSN_NN_kernelIfffLi256ELi4ELi2ELi8ELi7ELi4EEv22cublasGemmSmallNParamsIT_T0_T1_EPKS1_S6_S1_S1_i$__cuda_local_var_24523_36_non_const_BB" from 0x0 to 0x3800 (shared memory space)
GPGPU-Sim PTX: allocating shared region for "_Z16gemmSN_NN_kernelIfffLi256ELi4ELi2ELi8ELi7ELi4EEv22cublasGemmSmallNParamsIT_T0_T1_EPKS1_S6_S1_S1_i$__cuda_local_var_24524_36_non_const_SDOT" from 0x3800 to 0x5400 (shared memory space)
GPGPU-Sim PTX: instruction assembly for function '_Z16gemmSN_NN_kernelIfffLi256ELi4ELi2ELi8ELi7ELi4EEv22cublasGemmSmallNParamsIT_T0_T1_EPKS1_S6_S1_S1_i'...   done.
GPGPU-Sim: Warning: .minnctapersm ignored. 
GPGPU-Sim PTX: allocating shared region for "_Z16gemmSN_NN_kernelIfffLi256ELi4ELi2ELi8ELi8ELi4EEv22cublasGemmSmallNParamsIT_T0_T1_EPKS1_S6_S1_S1_i$__cuda_local_var_24523_36_non_const_BB" from 0x0 to 0x4000 (shared memory space)
GPGPU-Sim PTX: allocating shared region for "_Z16gemmSN_NN_kernelIfffLi256ELi4ELi2ELi8ELi8ELi4EEv22cublasGemmSmallNParamsIT_T0_T1_EPKS1_S6_S1_S1_i$__cuda_local_var_24524_36_non_const_SDOT" from 0x4000 to 0x6000 (shared memory space)
GPGPU-Sim PTX: instruction assembly for function '_Z16gemmSN_NN_kernelIfffLi256ELi4ELi2ELi8ELi8ELi4EEv22cublasGemmSmallNParamsIT_T0_T1_EPKS1_S6_S1_S1_i'...   done.
GPGPU-Sim PTX: allocating shared region for "_Z16gemmSN_TN_kernelIfffLi128ELi16ELi2ELi4ELi2ELi2ELb1EEviiiPKT0_iS2_iPT1_iPKT_S7_S5_S5_ii$__cuda_local_var_24263_36_non_const_BB" from 0x0 to 0x800 (shared memory space)
GPGPU-Sim PTX: allocating shared region for "_Z16gemmSN_TN_kernelIfffLi128ELi16ELi2ELi4ELi2ELi2ELb1EEviiiPKT0_iS2_iPT1_iPKT_S7_S5_S5_ii$__cuda_local_var_24264_36_non_const_SDOT" from 0x800 to 0xc00 (shared memory space)
GPGPU-Sim PTX: instruction assembly for function '_Z16gemmSN_TN_kernelIfffLi128ELi16ELi2ELi4ELi2ELi2ELb1EEviiiPKT0_iS2_iPT1_iPKT_S7_S5_S5_ii'...   done.
GPGPU-Sim PTX: allocating shared region for "_Z16gemmSN_TN_kernelIfffLi128ELi16ELi2ELi4ELi4ELi4ELb0EEviiiPKT0_iS2_iPT1_iPKT_S7_S5_S5_ii$__cuda_local_var_24263_36_non_const_BB" from 0x0 to 0x1000 (shared memory space)
GPGPU-Sim PTX: allocating shared region for "_Z16gemmSN_TN_kernelIfffLi128ELi16ELi2ELi4ELi4ELi4ELb0EEviiiPKT0_iS2_iPT1_iPKT_S7_S5_S5_ii$__cuda_local_var_24264_36_non_const_SDOT" from 0x1000 to 0x1800 (shared memory space)
GPGPU-Sim PTX: instruction assembly for function '_Z16gemmSN_TN_kernelIfffLi128ELi16ELi2ELi4ELi4ELi4ELb0EEviiiPKT0_iS2_iPT1_iPKT_S7_S5_S5_ii'...   done.
GPGPU-Sim PTX: allocating shared region for "_Z16gemmSN_TN_kernelIfffLi128ELi16ELi2ELi4ELi4ELi4ELb1EEviiiPKT0_iS2_iPT1_iPKT_S7_S5_S5_ii$__cuda_local_var_24263_36_non_const_BB" from 0x0 to 0x1000 (shared memory space)
GPGPU-Sim PTX: allocating shared region for "_Z16gemmSN_TN_kernelIfffLi128ELi16ELi2ELi4ELi4ELi4ELb1EEviiiPKT0_iS2_iPT1_iPKT_S7_S5_S5_ii$__cuda_local_var_24264_36_non_const_SDOT" from 0x1000 to 0x1800 (shared memory space)
[...]

Row_Buffer_Locality = 0.635256
Row_Buffer_Locality_read = 0.901165
Row_Buffer_Locality_write = 0.305052
Bank_Level_Parallism = 3.127672
Bank_Level_Parallism_Col = 2.291662
Bank_Level_Parallism_Ready = 1.464698
write_to_read_ratio_blp_rw_average = 0.760994
GrpLevelPara = 1.826439 

BW Util details:
bwutil = 0.298438 
total_CMD = 162687 
util_bw = 48552 
Wasted_Col = 43814 
Wasted_Row = 13530 
Idle = 56791 

BW Util Bottlenecks: 
RCDc_limit = 7297 
RCDWRc_limit = 32814 
WTRc_limit = 7139 
RTWc_limit = 17146 
CCDLc_limit = 23734 
rwq = 0 
CCDLc_limit_alone = 22040 
WTRc_limit_alone = 6298 
RTWc_limit_alone = 16293 

Commands details: 
total_CMD = 162687 
n_nop = 105402 
Read = 11504 
Write = 0 
L2_Alloc = 0 
L2_WB = 37048 
n_act = 7575 
n_pre = 7559 
n_ref = 0 
n_req = 20768 
total_req = 48552 

Dual Bus Interface Util: 
issued_total_row = 15134 
issued_total_col = 48552 
Row_Bus_Util =  0.093025 
CoL_Bus_Util = 0.298438 
Either_Row_CoL_Bus_Util = 0.352118 
Issued_on_Two_Bus_Simul_Util = 0.039345 
issued_two_Eff = 0.111740 
queue_avg = 2.187526 


dram_util_bins: 0 0 0 0 0 0 0 0 0 0
dram_eff_bins: 0 0 0 0 0 0 0 0 0 0
mrqq: max=47 avg=2.18753
Memory Partition 31: 
Cache L2_bank_062:
MSHR contents

Cache L2_bank_063:
MSHR contents

In Dram Latency Queue (total = 0): 
DRAM[31]: 16 bks, busW=16 BL=2 CL=12, tRRD=3 tCCD=1, tRCD=12 tRAS=28 tRP=12 tRC=40
n_cmd=162687 n_nop=105703 n_act=7519 n_pre=7503 n_ref_event=0 n_req=20582 n_rd=11308 n_rd_L2_A=0 n_write=0 n_wr_bk=37081 bw_util=0.2974
n_activity=115840 dram_eff=0.4177
bk0: 724a 142861i bk1: 712a 141735i bk2: 644a 143461i bk3: 624a 144159i bk4: 588a 143580i bk5: 556a 143602i bk6: 620a 143494i bk7: 628a 143759i bk8: 704a 143097i bk9: 688a 143276i bk10: 764a 142824i bk11: 724a 143884i bk12: 780a 143335i bk13: 752a 142993i bk14: 876a 143182i bk15: 924a 142629i 

------------------------------------------------------------------------

Row_Buffer_Locality = 0.634681
Row_Buffer_Locality_read = 0.906261
Row_Buffer_Locality_write = 0.303537
Bank_Level_Parallism = 3.118829
Bank_Level_Parallism_Col = 2.311098
Bank_Level_Parallism_Ready = 1.495505
write_to_read_ratio_blp_rw_average = 0.771424
GrpLevelPara = 1.826898 

BW Util details:
bwutil = 0.297436 
total_CMD = 162687 
util_bw = 48389 
Wasted_Col = 44117 
Wasted_Row = 13849 
Idle = 56332 

BW Util Bottlenecks: 
RCDc_limit = 6822 
RCDWRc_limit = 33129 
WTRc_limit = 6472 
RTWc_limit = 18144 
CCDLc_limit = 23761 
rwq = 0 
CCDLc_limit_alone = 22112 
WTRc_limit_alone = 5757 
RTWc_limit_alone = 17210 

Commands details: 
total_CMD = 162687 
n_nop = 105703 
Read = 11308 
Write = 0 
L2_Alloc = 0 
L2_WB = 37081 
n_act = 7519 
n_pre = 7503 
n_ref = 0 
n_req = 20582 
total_req = 48389 

Dual Bus Interface Util: 
issued_total_row = 15022 
issued_total_col = 48389 
Row_Bus_Util =  0.092337 
CoL_Bus_Util = 0.297436 
Either_Row_CoL_Bus_Util = 0.350268 
Issued_on_Two_Bus_Simul_Util = 0.039505 
issued_two_Eff = 0.112786 
queue_avg = 2.140165 


dram_util_bins: 0 0 0 0 0 0 0 0 0 0
dram_eff_bins: 0 0 0 0 0 0 0 0 0 0
mrqq: max=50 avg=2.14016

========= L2 cache stats =========
L2_cache_bank[0]: Access = 112373, Miss = 95138, Miss_rate = 0.847, Pending_hits = 308, Reservation_fails = 2887
L2_cache_bank[1]: Access = 112786, Miss = 95081, Miss_rate = 0.843, Pending_hits = 423, Reservation_fails = 3605
L2_cache_bank[2]: Access = 112013, Miss = 95217, Miss_rate = 0.850, Pending_hits = 367, Reservation_fails = 2617
L2_cache_bank[3]: Access = 111932, Miss = 95047, Miss_rate = 0.849, Pending_hits = 421, Reservation_fails = 3639
L2_cache_bank[4]: Access = 111856, Miss = 95157, Miss_rate = 0.851, Pending_hits = 351, Reservation_fails = 2929
L2_cache_bank[5]: Access = 111855, Miss = 95036, Miss_rate = 0.850, Pending_hits = 487, Reservation_fails = 2843
L2_cache_bank[6]: Access = 111733, Miss = 95129, Miss_rate = 0.851, Pending_hits = 387, Reservation_fails = 2727
L2_cache_bank[7]: Access = 112216, Miss = 95069, Miss_rate = 0.847, Pending_hits = 450, Reservation_fails = 3507
L2_cache_bank[8]: Access = 111911, Miss = 95191, Miss_rate = 0.851, Pending_hits = 369, Reservation_fails = 3273
L2_cache_bank[9]: Access = 112420, Miss = 95164, Miss_rate = 0.847, Pending_hits = 540, Reservation_fails = 3198
L2_cache_bank[10]: Access = 112424, Miss = 95116, Miss_rate = 0.846, Pending_hits = 375, Reservation_fails = 2844
L2_cache_bank[11]: Access = 112432, Miss = 95213, Miss_rate = 0.847, Pending_hits = 497, Reservation_fails = 3975
L2_cache_bank[12]: Access = 111794, Miss = 95169, Miss_rate = 0.851, Pending_hits = 346, Reservation_fails = 3613
L2_cache_bank[13]: Access = 111504, Miss = 95108, Miss_rate = 0.853, Pending_hits = 394, Reservation_fails = 3789
L2_cache_bank[14]: Access = 111919, Miss = 95173, Miss_rate = 0.850, Pending_hits = 357, Reservation_fails = 3445
L2_cache_bank[15]: Access = 111840, Miss = 95184, Miss_rate = 0.851, Pending_hits = 477, Reservation_fails = 2975
L2_cache_bank[16]: Access = 112029, Miss = 95250, Miss_rate = 0.850, Pending_hits = 416, Reservation_fails = 3099
L2_cache_bank[17]: Access = 111805, Miss = 95087, Miss_rate = 0.850, Pending_hits = 400, Reservation_fails = 3195
L2_cache_bank[18]: Access = 111977, Miss = 95314, Miss_rate = 0.851, Pending_hits = 411, Reservation_fails = 2430
L2_cache_bank[19]: Access = 111169, Miss = 95070, Miss_rate = 0.855, Pending_hits = 388, Reservation_fails = 3065
L2_cache_bank[20]: Access = 112258, Miss = 95137, Miss_rate = 0.847, Pending_hits = 389, Reservation_fails = 3186
L2_cache_bank[21]: Access = 111193, Miss = 95171, Miss_rate = 0.856, Pending_hits = 455, Reservation_fails = 3367
L2_cache_bank[22]: Access = 112002, Miss = 95189, Miss_rate = 0.850, Pending_hits = 402, Reservation_fails = 3415
L2_cache_bank[23]: Access = 111553, Miss = 95144, Miss_rate = 0.853, Pending_hits = 466, Reservation_fails = 3259
L2_cache_bank[24]: Access = 112038, Miss = 95052, Miss_rate = 0.848, Pending_hits = 377, Reservation_fails = 3736
L2_cache_bank[25]: Access = 111570, Miss = 95022, Miss_rate = 0.852, Pending_hits = 429, Reservation_fails = 3665
L2_cache_bank[26]: Access = 111988, Miss = 95095, Miss_rate = 0.849, Pending_hits = 420, Reservation_fails = 2975
L2_cache_bank[27]: Access = 112262, Miss = 95081, Miss_rate = 0.847, Pending_hits = 438, Reservation_fails = 3124
L2_cache_bank[28]: Access = 112365, Miss = 95180, Miss_rate = 0.847, Pending_hits = 418, Reservation_fails = 2851
L2_cache_bank[29]: Access = 111691, Miss = 95019, Miss_rate = 0.851, Pending_hits = 402, Reservation_fails = 3532
L2_cache_bank[30]: Access = 112252, Miss = 95277, Miss_rate = 0.849, Pending_hits = 407, Reservation_fails = 2982
L2_cache_bank[31]: Access = 112063, Miss = 95181, Miss_rate = 0.849, Pending_hits = 432, Reservation_fails = 3065
L2_cache_bank[32]: Access = 111780, Miss = 95162, Miss_rate = 0.851, Pending_hits = 471, Reservation_fails = 3315
L2_cache_bank[33]: Access = 112257, Miss = 94868, Miss_rate = 0.845, Pending_hits = 402, Reservation_fails = 4204
L2_cache_bank[34]: Access = 111517, Miss = 95122, Miss_rate = 0.853, Pending_hits = 440, Reservation_fails = 2534
L2_cache_bank[35]: Access = 111728, Miss = 94905, Miss_rate = 0.849, Pending_hits = 422, Reservation_fails = 3436
L2_cache_bank[36]: Access = 111741, Miss = 95092, Miss_rate = 0.851, Pending_hits = 436, Reservation_fails = 2566
L2_cache_bank[37]: Access = 112370, Miss = 94994, Miss_rate = 0.845, Pending_hits = 422, Reservation_fails = 3192
L2_cache_bank[38]: Access = 112452, Miss = 95095, Miss_rate = 0.846, Pending_hits = 436, Reservation_fails = 2124
L2_cache_bank[39]: Access = 112161, Miss = 94963, Miss_rate = 0.847, Pending_hits = 391, Reservation_fails = 2804
L2_cache_bank[40]: Access = 111171, Miss = 95143, Miss_rate = 0.856, Pending_hits = 410, Reservation_fails = 2423
L2_cache_bank[41]: Access = 111241, Miss = 94993, Miss_rate = 0.854, Pending_hits = 348, Reservation_fails = 3474
L2_cache_bank[42]: Access = 111264, Miss = 95237, Miss_rate = 0.856, Pending_hits = 452, Reservation_fails = 2412
L2_cache_bank[43]: Access = 111755, Miss = 94965, Miss_rate = 0.850, Pending_hits = 390, Reservation_fails = 3322
L2_cache_bank[44]: Access = 111263, Miss = 95047, Miss_rate = 0.854, Pending_hits = 400, Reservation_fails = 1860
L2_cache_bank[45]: Access = 111032, Miss = 94985, Miss_rate = 0.855, Pending_hits = 435, Reservation_fails = 2822
L2_cache_bank[46]: Access = 112315, Miss = 95096, Miss_rate = 0.847, Pending_hits = 443, Reservation_fails = 2493
L2_cache_bank[47]: Access = 111977, Miss = 94968, Miss_rate = 0.848, Pending_hits = 386, Reservation_fails = 3140
L2_cache_bank[48]: Access = 112075, Miss = 95216, Miss_rate = 0.850, Pending_hits = 441, Reservation_fails = 2201
L2_cache_bank[49]: Access = 111788, Miss = 95013, Miss_rate = 0.850, Pending_hits = 460, Reservation_fails = 2946
L2_cache_bank[50]: Access = 111871, Miss = 95103, Miss_rate = 0.850, Pending_hits = 403, Reservation_fails = 2808
L2_cache_bank[51]: Access = 112071, Miss = 95078, Miss_rate = 0.848, Pending_hits = 424, Reservation_fails = 3918
L2_cache_bank[52]: Access = 111844, Miss = 95126, Miss_rate = 0.851, Pending_hits = 367, Reservation_fails = 3219
L2_cache_bank[53]: Access = 111977, Miss = 95106, Miss_rate = 0.849, Pending_hits = 457, Reservation_fails = 2911
L2_cache_bank[54]: Access = 112073, Miss = 95165, Miss_rate = 0.849, Pending_hits = 414, Reservation_fails = 2420
L2_cache_bank[55]: Access = 112072, Miss = 94985, Miss_rate = 0.848, Pending_hits = 448, Reservation_fails = 2446
L2_cache_bank[56]: Access = 111638, Miss = 95037, Miss_rate = 0.851, Pending_hits = 431, Reservation_fails = 3292
L2_cache_bank[57]: Access = 111500, Miss = 95019, Miss_rate = 0.852, Pending_hits = 392, Reservation_fails = 2987
L2_cache_bank[58]: Access = 111439, Miss = 95110, Miss_rate = 0.853, Pending_hits = 406, Reservation_fails = 2285
L2_cache_bank[59]: Access = 112316, Miss = 95000, Miss_rate = 0.846, Pending_hits = 406, Reservation_fails = 3060
L2_cache_bank[60]: Access = 112073, Miss = 95173, Miss_rate = 0.849, Pending_hits = 393, Reservation_fails = 2333
L2_cache_bank[61]: Access = 111317, Miss = 95051, Miss_rate = 0.854, Pending_hits = 387, Reservation_fails = 2992
L2_cache_bank[62]: Access = 112438, Miss = 95075, Miss_rate = 0.846, Pending_hits = 408, Reservation_fails = 2683
L2_cache_bank[63]: Access = 111923, Miss = 94920, Miss_rate = 0.848, Pending_hits = 429, Reservation_fails = 2732
L2_total_cache_accesses = 7161662
L2_total_cache_misses = 6086273
L2_total_cache_miss_rate = 0.8498
L2_total_cache_pending_hits = 26549
L2_total_cache_reservation_fails = 194166
L2_total_cache_breakdown:
	L2_cache_stats_breakdown[GLOBAL_ACC_R][HIT] = 272040
	L2_cache_stats_breakdown[GLOBAL_ACC_R][HIT_RESERVED] = 10425
	L2_cache_stats_breakdown[GLOBAL_ACC_R][MISS] = 52743
	L2_cache_stats_breakdown[GLOBAL_ACC_R][RESERVATION_FAIL] = 189802
	L2_cache_stats_breakdown[GLOBAL_ACC_R][SECTOR_MISS] = 158032
	L2_cache_stats_breakdown[LOCAL_ACC_R][HIT] = 0
	L2_cache_stats_breakdown[LOCAL_ACC_R][HIT_RESERVED] = 0
	L2_cache_stats_breakdown[LOCAL_ACC_R][MISS] = 0
	L2_cache_stats_breakdown[LOCAL_ACC_R][RESERVATION_FAIL] = 0
	L2_cache_stats_breakdown[LOCAL_ACC_R][SECTOR_MISS] = 0
	L2_cache_stats_breakdown[CONST_ACC_R][HIT] = 0
	L2_cache_stats_breakdown[CONST_ACC_R][HIT_RESERVED] = 0
	L2_cache_stats_breakdown[CONST_ACC_R][MISS] = 0
	L2_cache_stats_breakdown[CONST_ACC_R][RESERVATION_FAIL] = 0
	L2_cache_stats_breakdown[CONST_ACC_R][SECTOR_MISS] = 0
	L2_cache_stats_breakdown[TEXTURE_ACC_R][HIT] = 775520
	L2_cache_stats_breakdown[TEXTURE_ACC_R][HIT_RESERVED] = 16124
	L2_cache_stats_breakdown[TEXTURE_ACC_R][MISS] = 38616
	L2_cache_stats_breakdown[TEXTURE_ACC_R][RESERVATION_FAIL] = 4364
	L2_cache_stats_breakdown[TEXTURE_ACC_R][SECTOR_MISS] = 115848
	L2_cache_stats_breakdown[GLOBAL_ACC_W][HIT] = 1280
	L2_cache_stats_breakdown[GLOBAL_ACC_W][HIT_RESERVED] = 0
	L2_cache_stats_breakdown[GLOBAL_ACC_W][MISS] = 352468
	L2_cache_stats_breakdown[GLOBAL_ACC_W][RESERVATION_FAIL] = 0
	L2_cache_stats_breakdown[GLOBAL_ACC_W][SECTOR_MISS] = 5368566
	L2_cache_stats_breakdown[LOCAL_ACC_W][HIT] = 0
	L2_cache_stats_breakdown[LOCAL_ACC_W][HIT_RESERVED] = 0
	L2_cache_stats_breakdown[LOCAL_ACC_W][MISS] = 0
	L2_cache_stats_breakdown[LOCAL_ACC_W][RESERVATION_FAIL] = 0
	L2_cache_stats_breakdown[LOCAL_ACC_W][SECTOR_MISS] = 0
	L2_cache_stats_breakdown[L1_WRBK_ACC][HIT] = 0
	L2_cache_stats_breakdown[L1_WRBK_ACC][HIT_RESERVED] = 0
	L2_cache_stats_breakdown[L1_WRBK_ACC][MISS] = 0
	L2_cache_stats_breakdown[L1_WRBK_ACC][RESERVATION_FAIL] = 0
	L2_cache_stats_breakdown[L1_WRBK_ACC][SECTOR_MISS] = 0
	L2_cache_stats_breakdown[L2_WRBK_ACC][HIT] = 0
	L2_cache_stats_breakdown[L2_WRBK_ACC][HIT_RESERVED] = 0
	L2_cache_stats_breakdown[L2_WRBK_ACC][MISS] = 0
	L2_cache_stats_breakdown[L2_WRBK_ACC][RESERVATION_FAIL] = 0
	L2_cache_stats_breakdown[L2_WRBK_ACC][SECTOR_MISS] = 0
	L2_cache_stats_breakdown[INST_ACC_R][HIT] = 0
	L2_cache_stats_breakdown[INST_ACC_R][HIT_RESERVED] = 0
	L2_cache_stats_breakdown[INST_ACC_R][MISS] = 0
	L2_cache_stats_breakdown[INST_ACC_R][RESERVATION_FAIL] = 0
	L2_cache_stats_breakdown[INST_ACC_R][SECTOR_MISS] = 0
	L2_cache_stats_breakdown[L1_WR_ALLOC_R][HIT] = 0
	L2_cache_stats_breakdown[L1_WR_ALLOC_R][HIT_RESERVED] = 0
	L2_cache_stats_breakdown[L1_WR_ALLOC_R][MISS] = 0
	L2_cache_stats_breakdown[L1_WR_ALLOC_R][RESERVATION_FAIL] = 0
	L2_cache_stats_breakdown[L1_WR_ALLOC_R][SECTOR_MISS] = 0
	L2_cache_stats_breakdown[L2_WR_ALLOC_R][HIT] = 0
	L2_cache_stats_breakdown[L2_WR_ALLOC_R][HIT_RESERVED] = 0
	L2_cache_stats_breakdown[L2_WR_ALLOC_R][MISS] = 0
	L2_cache_stats_breakdown[L2_WR_ALLOC_R][RESERVATION_FAIL] = 0
	L2_cache_stats_breakdown[L2_WR_ALLOC_R][SECTOR_MISS] = 0
	L2_cache_stats_breakdown[GLOBAL_ACC_R][TOTAL_ACCESS] = 493240
	L2_cache_stats_breakdown[TEXTURE_ACC_R][TOTAL_ACCESS] = 946108
	L2_cache_stats_breakdown[GLOBAL_ACC_W][TOTAL_ACCESS] = 5722314

ABBOOOV!
 PC=0x16650 (cudaDataLoader.16.sm_50.ptx:785) st.global.f32 [%rd14], %f920; total: 173283, miss: 173123
 PC=0x16688 (cudaDataLoader.16.sm_50.ptx:796) st.global.f32 [%rd15], %f921; total: 173592, miss: 173592
 PC=0x166b8 (cudaDataLoader.16.sm_50.ptx:806) st.global.f32 [%rd16], %f922; total: 173283, miss: 173283
 PC=0x166f0 (cudaDataLoader.16.sm_50.ptx:817) st.global.f32 [%rd17], %f923; total: 173592, miss: 173592
 PC=0x168a0 (cudaDataLoader.16.sm_50.ptx:909) st.global.f32 [%rd14+4], %f932; total: 173221, miss: 173061
 PC=0x168d8 (cudaDataLoader.16.sm_50.ptx:920) st.global.f32 [%rd15+4], %f933; total: 173529, miss: 173529
 PC=0x16908 (cudaDataLoader.16.sm_50.ptx:930) st.global.f32 [%rd16+4], %f934; total: 173221, miss: 173221
 PC=0x16940 (cudaDataLoader.16.sm_50.ptx:941) st.global.f32 [%rd17+4], %f935; total: 173221, miss: 173221
 PC=0x16af0 (cudaDataLoader.16.sm_50.ptx:1033) st.global.f32 [%rd14+8], %f944; total: 173221, miss: 173061
 PC=0x16b28 (cudaDataLoader.16.sm_50.ptx:1044) st.global.f32 [%rd15+8], %f945; total: 173529, miss: 173529
 PC=0x16b58 (cudaDataLoader.16.sm_50.ptx:1054) st.global.f32 [%rd16+8], %f946; total: 173529, miss: 173529
 PC=0x16b90 (cudaDataLoader.16.sm_50.ptx:1065) st.global.f32 [%rd17+8], %f947; total: 173221, miss: 173221
 PC=0x16d40 (cudaDataLoader.16.sm_50.ptx:1157) st.global.f32 [%rd14+12], %f956; total: 173221, miss: 173061
 PC=0x16d78 (cudaDataLoader.16.sm_50.ptx:1168) st.global.f32 [%rd15+12], %f957; total: 173221, miss: 173221
 PC=0x16da8 (cudaDataLoader.16.sm_50.ptx:1178) st.global.f32 [%rd16+12], %f958; total: 173529, miss: 173529
 PC=0x16de0 (cudaDataLoader.16.sm_50.ptx:1189) st.global.f32 [%rd17+12], %f959; total: 173221, miss: 173221
 PC=0x16f90 (cudaDataLoader.16.sm_50.ptx:1281) st.global.f32 [%rd14+128], %f968; total: 173096, miss: 172936
 PC=0x16fc8 (cudaDataLoader.16.sm_50.ptx:1292) st.global.f32 [%rd15+128], %f969; total: 173404, miss: 173404
 PC=0x16ff8 (cudaDataLoader.16.sm_50.ptx:1302) st.global.f32 [%rd16+128], %f970; total: 173096, miss: 173096
 PC=0x17030 (cudaDataLoader.16.sm_50.ptx:1313) st.global.f32 [%rd17+128], %f971; total: 173404, miss: 173404
 PC=0x171e0 (cudaDataLoader.16.sm_50.ptx:1405) st.global.f32 [%rd14+132], %f980; total: 173096, miss: 172936
 PC=0x17218 (cudaDataLoader.16.sm_50.ptx:1416) st.global.f32 [%rd15+132], %f981; total: 173404, miss: 173404
 PC=0x17248 (cudaDataLoader.16.sm_50.ptx:1426) st.global.f32 [%rd16+132], %f982; total: 173096, miss: 173096
 PC=0x17280 (cudaDataLoader.16.sm_50.ptx:1437) st.global.f32 [%rd17+132], %f983; total: 173096, miss: 173096
 PC=0x17430 (cudaDataLoader.16.sm_50.ptx:1529) st.global.f32 [%rd14+136], %f992; total: 173096, miss: 172936
 PC=0x17468 (cudaDataLoader.16.sm_50.ptx:1540) st.global.f32 [%rd15+136], %f993; total: 173404, miss: 173404
 PC=0x17498 (cudaDataLoader.16.sm_50.ptx:1550) st.global.f32 [%rd16+136], %f994; total: 173404, miss: 173404
 PC=0x174d0 (cudaDataLoader.16.sm_50.ptx:1561) st.global.f32 [%rd17+136], %f995; total: 173096, miss: 173096
 PC=0x17688 (cudaDataLoader.16.sm_50.ptx:1654) st.global.f32 [%rd14+140], %f1004; total: 173096, miss: 172936
 PC=0x176c0 (cudaDataLoader.16.sm_50.ptx:1665) st.global.f32 [%rd15+140], %f1005; total: 173096, miss: 173096
 PC=0x176f0 (cudaDataLoader.16.sm_50.ptx:1675) st.global.f32 [%rd16+140], %f1006; total: 173404, miss: 173404
 PC=0x17730 (cudaDataLoader.16.sm_50.ptx:1687) st.global.f32 [%rd17+140], %f1007; total: 173096, miss: 173096
 PC=0xeae60 (cudaDataLoader.10.sm_61.ptx:56) ld.global.f32 %f1, [%rd12]; total: 188377, miss: 152152
 PC=0xeae68 (cudaDataLoader.10.sm_61.ptx:57) ld.global.u32 %r11, [%rd6]; total: 22162, miss: 1869
 PC=0xeaea0 (cudaDataLoader.10.sm_61.ptx:64) atom.global.add.f32 %f2, [%rd17], %f1; total: 419812, miss: 241629
 PC=0xeb558 (cudaDataLoader.12.sm_61.ptx:48) ld.global.u32 %r8, [%rd6]; total: 11081, miss: 1661
 PC=0xeb5a0 (cudaDataLoader.12.sm_61.ptx:57) ld.global.f32 %f1, [%rd12]; total: 41610, miss: 13691
 PC=0xeb5d0 (cudaDataLoader.12.sm_61.ptx:63) st.global.f32 [%rd15], %f2; total: 177296, miss: 177296
bubble total: 950472, miss: 174952
L2_total_cache_reservation_fail_breakdown:
	L2_cache_stats_fail_breakdown[GLOBAL_ACC_R][MSHR_MERGE_ENRTY_FAIL] = 189802
	L2_cache_stats_fail_breakdown[TEXTURE_ACC_R][MSHR_MERGE_ENRTY_FAIL] = 4364
L2_cache_data_port_util = 0.153
L2_cache_fill_port_util = 0.026

icnt_total_pkts_mem_to_simt=7161662
icnt_total_pkts_simt_to_mem=6452081
LD_mem_lat_dist  0 0 0 0 0 0 0 0 0 0 0 0 0 0 0 0 0 0 0 0 0 0 0 0 0 0 0
ST_mem_lat_dist  0 0 0 0 0 0 0 0 0 0 0 0 0 0 0 0 0 0 0 0 0 0 0 0 0 0 0
----------------------------Interconnect-DETAILS--------------------------------
Req_Network_injected_packets_num = 6452081
Req_Network_cycles = 216660
Req_Network_injected_packets_per_cycle =      29.7798 
Req_Network_conflicts_per_cycle =      32.8340
Req_Network_conflicts_per_cycle_util =      37.0537
Req_Bank_Level_Parallism =      33.6069
Req_Network_in_buffer_full_per_cycle =      28.0206
Req_Network_in_buffer_avg_util =     343.3126
Req_Network_out_buffer_full_per_cycle =       0.0922
Req_Network_out_buffer_avg_util =      25.4300

Reply_Network_injected_packets_num = 7161662
Reply_Network_cycles = 216660
Reply_Network_injected_packets_per_cycle =       33.0548
Reply_Network_conflicts_per_cycle =       20.8467
Reply_Network_conflicts_per_cycle_util =      23.3748
Reply_Bank_Level_Parallism =      37.0635
Reply_Network_in_buffer_full_per_cycle =       2.8172
Reply_Network_in_buffer_avg_util =     130.4784
Reply_Network_out_buffer_full_per_cycle =       0.0000
Reply_Network_out_buffer_avg_util =       0.4132
----------------------------END-of-Interconnect-DETAILS-------------------------


gpgpu_simulation_time = 0 days, 0 hrs, 45 min, 7 sec (2707 sec)
gpgpu_simulation_rate = 158328 (inst/sec)
gpgpu_simulation_rate = 80 (cycle/sec)
gpgpu_silicon_slowdown = 14150000x
debug scatter kernel launched
GPGPU-Sim: synchronize waiting for inactive GPU simulation
GPGPU-Sim API: Stream Manager State
GPGPU-Sim: detected inactive GPU simulation thread
2-layer GCN execution took 2.69773e+06 ms
GPGPU-Sim: *** exit detected ***
