

        *** GPGPU-Sim Simulator Version 4.0.0  [build gpgpu-sim_git-commit-90ec3399763d7c8512cfe7dc193473086c38ca38_modified_4.0] ***


GPGPU-Sim PTX: simulation mode 0 (can change with PTX_SIM_MODE_FUNC environment variable:
               1=functional simulation only, 0=detailed performance simulator)
GPGPU-Sim PTX: overriding embedded ptx with ptx file (PTX_SIM_USE_PTX_FILE is set)
GPGPU-Sim: Configuration options:

-save_embedded_ptx                      0 # saves ptx files embedded in binary as <n>.ptx
-keep                                   0 # keep intermediate files created by GPGPU-Sim when interfacing with external programs
-gpgpu_ptx_save_converted_ptxplus                    0 # Saved converted ptxplus to a file
-gpgpu_occupancy_sm_number                   70 # The SM number to pass to ptxas when getting register usage for computing GPU occupancy. This parameter is required in the config.
-ptx_opcode_latency_int      4,13,4,5,145,21 # Opcode latencies for integers <ADD,MAX,MUL,MAD,DIV,SHFL>Default 1,1,19,25,145,32
-ptx_opcode_latency_fp          4,13,4,5,39 # Opcode latencies for single precision floating points <ADD,MAX,MUL,MAD,DIV>Default 1,1,1,1,30
-ptx_opcode_latency_dp         8,19,8,8,330 # Opcode latencies for double precision floating points <ADD,MAX,MUL,MAD,DIV>Default 8,8,8,8,335
-ptx_opcode_latency_sfu                  100 # Opcode latencies for SFU instructionsDefault 8
-ptx_opcode_latency_tesnor                   64 # Opcode latencies for Tensor instructionsDefault 64
-ptx_opcode_initiation_int          2,2,2,2,8,4 # Opcode initiation intervals for integers <ADD,MAX,MUL,MAD,DIV,SHFL>Default 1,1,4,4,32,4
-ptx_opcode_initiation_fp            2,2,2,2,4 # Opcode initiation intervals for single precision floating points <ADD,MAX,MUL,MAD,DIV>Default 1,1,1,1,5
-ptx_opcode_initiation_dp          4,4,4,4,130 # Opcode initiation intervals for double precision floating points <ADD,MAX,MUL,MAD,DIV>Default 8,8,8,8,130
-ptx_opcode_initiation_sfu                    8 # Opcode initiation intervals for sfu instructionsDefault 8
-ptx_opcode_initiation_tensor                   64 # Opcode initiation intervals for tensor instructionsDefault 64
-cdp_latency         7200,8000,100,12000,1600 # CDP API latency <cudaStreamCreateWithFlags, cudaGetParameterBufferV2_init_perWarp, cudaGetParameterBufferV2_perKernel, cudaLaunchDeviceV2_init_perWarp, cudaLaunchDevicV2_perKernel>Default 7200,8000,100,12000,1600
-network_mode                           2 # Interconnection network mode
-inter_config_file                   mesh # Interconnection network config file
-icnt_in_buffer_limit                  512 # in_buffer_limit
-icnt_out_buffer_limit                  512 # out_buffer_limit
-icnt_subnets                           2 # subnets
-icnt_arbiter_algo                      1 # arbiter_algo
-icnt_verbose                           0 # inct_verbose
-icnt_grant_cycles                      1 # grant_cycles
-gpgpu_ptx_use_cuobjdump                    1 # Use cuobjdump to extract ptx and sass from binaries
-gpgpu_experimental_lib_support                    0 # Try to extract code from cuda libraries [Broken because of unknown cudaGetExportTable]
-checkpoint_option                      0 #  checkpointing flag (0 = no checkpoint)
-checkpoint_kernel                      1 #  checkpointing during execution of which kernel (1- 1st kernel)
-checkpoint_CTA                         0 #  checkpointing after # of CTA (< less than total CTA)
-resume_option                          0 #  resume flag (0 = no resume)
-resume_kernel                          0 #  Resume from which kernel (1= 1st kernel)
-resume_CTA                             0 #  resume from which CTA 
-checkpoint_CTA_t                       0 #  resume from which CTA 
-checkpoint_insn_Y                      0 #  resume from which CTA 
-gpgpu_ptx_convert_to_ptxplus                    0 # Convert SASS (native ISA) to ptxplus and run ptxplus
-gpgpu_ptx_force_max_capability                   70 # Force maximum compute capability
-gpgpu_ptx_inst_debug_to_file                    0 # Dump executed instructions' debug information to file
-gpgpu_ptx_inst_debug_file       inst_debug.txt # Executed instructions' debug output file
-gpgpu_ptx_inst_debug_thread_uid                    1 # Thread UID for executed instructions' debug output
-gpgpu_simd_model                       1 # 1 = post-dominator
-gpgpu_shader_core_pipeline              2048:32 # shader core pipeline config, i.e., {<nthread>:<warpsize>}
-gpgpu_tex_cache:l1  N:4:128:256,L:R:m:N:L,T:512:8,128:2 # per-shader L1 texture cache  (READ-ONLY) config  {<nsets>:<bsize>:<assoc>,<rep>:<wr>:<alloc>:<wr_alloc>,<mshr>:<N>:<merge>,<mq>:<rf>}
-gpgpu_const_cache:l1 N:128:64:8,L:R:f:N:L,S:2:64,4 # per-shader L1 constant memory cache  (READ-ONLY) config  {<nsets>:<bsize>:<assoc>,<rep>:<wr>:<alloc>:<wr_alloc>,<mshr>:<N>:<merge>,<mq>} 
-gpgpu_cache:il1     N:64:128:16,L:R:f:N:L,S:2:48,4 # shader L1 instruction cache config  {<nsets>:<bsize>:<assoc>,<rep>:<wr>:<alloc>:<wr_alloc>,<mshr>:<N>:<merge>,<mq>} 
-gpgpu_cache:dl1     S:1:128:256,L:L:s:N:L,A:256:8,16:0,32 # per-shader L1 data cache config  {<nsets>:<bsize>:<assoc>,<rep>:<wr>:<alloc>:<wr_alloc>,<mshr>:<N>:<merge>,<mq> | none}
-gpgpu_l1_banks                         4 # The number of L1 cache banks
-gpgpu_l1_banks_byte_interleaving                   32 # l1 banks byte interleaving granularity
-gpgpu_l1_banks_hashing_function                    0 # l1 banks hashing function
-gpgpu_l1_latency                      20 # L1 Hit Latency
-gpgpu_smem_latency                    20 # smem Latency
-gpgpu_cache:dl1PrefL1                 none # per-shader L1 data cache config  {<nsets>:<bsize>:<assoc>,<rep>:<wr>:<alloc>:<wr_alloc>,<mshr>:<N>:<merge>,<mq> | none}
-gpgpu_cache:dl1PrefShared                 none # per-shader L1 data cache config  {<nsets>:<bsize>:<assoc>,<rep>:<wr>:<alloc>:<wr_alloc>,<mshr>:<N>:<merge>,<mq> | none}
-gpgpu_gmem_skip_L1D                    0 # global memory access skip L1D cache (implements -Xptxas -dlcm=cg, default=no skip)
-gpgpu_perfect_mem                      0 # enable perfect memory mode (no cache miss)
-n_regfile_gating_group                    4 # group of lanes that should be read/written together)
-gpgpu_clock_gated_reg_file                    0 # enable clock gated reg file for power calculations
-gpgpu_clock_gated_lanes                    0 # enable clock gated lanes for power calculations
-gpgpu_shader_registers                65536 # Number of registers per shader core. Limits number of concurrent CTAs. (default 8192)
-gpgpu_registers_per_block                65536 # Maximum number of registers per CTA. (default 8192)
-gpgpu_ignore_resources_limitation                    0 # gpgpu_ignore_resources_limitation (default 0)
-gpgpu_shader_cta                      32 # Maximum number of concurrent CTAs in shader (default 8)
-gpgpu_num_cta_barriers                   16 # Maximum number of named barriers per CTA (default 16)
-gpgpu_n_clusters                      80 # number of processing clusters
-gpgpu_n_cores_per_cluster                    1 # number of simd cores per cluster
-gpgpu_n_cluster_ejection_buffer_size                   32 # number of packets in ejection buffer
-gpgpu_n_ldst_response_buffer_size                    2 # number of response packets in ld/st unit ejection buffer
-gpgpu_shmem_per_block                65536 # Size of shared memory per thread block or CTA (default 48kB)
-gpgpu_shmem_size                   98304 # Size of shared memory per shader core (default 16kB)
-gpgpu_adaptive_cache_config                    1 # adaptive_cache_config
-gpgpu_shmem_sizeDefault                98304 # Size of shared memory per shader core (default 16kB)
-gpgpu_shmem_size_PrefL1                16384 # Size of shared memory per shader core (default 16kB)
-gpgpu_shmem_size_PrefShared                16384 # Size of shared memory per shader core (default 16kB)
-gpgpu_shmem_num_banks                   32 # Number of banks in the shared memory in each shader core (default 16)
-gpgpu_shmem_limited_broadcast                    0 # Limit shared memory to do one broadcast per cycle (default on)
-gpgpu_shmem_warp_parts                    1 # Number of portions a warp is divided into for shared memory bank conflict check 
-gpgpu_mem_unit_ports                    1 # The number of memory transactions allowed per core cycle
-gpgpu_shmem_warp_parts                    1 # Number of portions a warp is divided into for shared memory bank conflict check 
-gpgpu_warpdistro_shader                   -1 # Specify which shader core to collect the warp size distribution from
-gpgpu_warp_issue_shader                    0 # Specify which shader core to collect the warp issue distribution from
-gpgpu_local_mem_map                    1 # Mapping from local memory space address to simulated GPU physical address space (default = enabled)
-gpgpu_num_reg_banks                   16 # Number of register banks (default = 8)
-gpgpu_reg_bank_use_warp_id                    0 # Use warp ID in mapping registers to banks (default = off)
-gpgpu_sub_core_model                    1 # Sub Core Volta/Pascal model (default = off)
-gpgpu_enable_specialized_operand_collector                    0 # enable_specialized_operand_collector
-gpgpu_operand_collector_num_units_sp                    4 # number of collector units (default = 4)
-gpgpu_operand_collector_num_units_dp                    0 # number of collector units (default = 0)
-gpgpu_operand_collector_num_units_sfu                    4 # number of collector units (default = 4)
-gpgpu_operand_collector_num_units_int                    0 # number of collector units (default = 0)
-gpgpu_operand_collector_num_units_tensor_core                    4 # number of collector units (default = 4)
-gpgpu_operand_collector_num_units_mem                    2 # number of collector units (default = 2)
-gpgpu_operand_collector_num_units_gen                    8 # number of collector units (default = 0)
-gpgpu_operand_collector_num_in_ports_sp                    1 # number of collector unit in ports (default = 1)
-gpgpu_operand_collector_num_in_ports_dp                    0 # number of collector unit in ports (default = 0)
-gpgpu_operand_collector_num_in_ports_sfu                    1 # number of collector unit in ports (default = 1)
-gpgpu_operand_collector_num_in_ports_int                    0 # number of collector unit in ports (default = 0)
-gpgpu_operand_collector_num_in_ports_tensor_core                    1 # number of collector unit in ports (default = 1)
-gpgpu_operand_collector_num_in_ports_mem                    1 # number of collector unit in ports (default = 1)
-gpgpu_operand_collector_num_in_ports_gen                    8 # number of collector unit in ports (default = 0)
-gpgpu_operand_collector_num_out_ports_sp                    1 # number of collector unit in ports (default = 1)
-gpgpu_operand_collector_num_out_ports_dp                    0 # number of collector unit in ports (default = 0)
-gpgpu_operand_collector_num_out_ports_sfu                    1 # number of collector unit in ports (default = 1)
-gpgpu_operand_collector_num_out_ports_int                    0 # number of collector unit in ports (default = 0)
-gpgpu_operand_collector_num_out_ports_tensor_core                    1 # number of collector unit in ports (default = 1)
-gpgpu_operand_collector_num_out_ports_mem                    1 # number of collector unit in ports (default = 1)
-gpgpu_operand_collector_num_out_ports_gen                    8 # number of collector unit in ports (default = 0)
-gpgpu_coalesce_arch                   60 # Coalescing arch (GT200 = 13, Fermi = 20)
-gpgpu_num_sched_per_core                    4 # Number of warp schedulers per core
-gpgpu_max_insn_issue_per_warp                    1 # Max number of instructions that can be issued per warp in one cycle by scheduler (either 1 or 2)
-gpgpu_dual_issue_diff_exec_units                    1 # should dual issue use two different execution unit resources (Default = 1)
-gpgpu_simt_core_sim_order                    1 # Select the simulation order of cores in a cluster (0=Fix, 1=Round-Robin)
-gpgpu_pipeline_widths 4,4,4,4,4,4,4,4,4,4,8,4,4 # Pipeline widths ID_OC_SP,ID_OC_DP,ID_OC_INT,ID_OC_SFU,ID_OC_MEM,OC_EX_SP,OC_EX_DP,OC_EX_INT,OC_EX_SFU,OC_EX_MEM,EX_WB,ID_OC_TENSOR_CORE,OC_EX_TENSOR_CORE
-gpgpu_tensor_core_avail                    1 # Tensor Core Available (default=0)
-gpgpu_num_sp_units                     4 # Number of SP units (default=1)
-gpgpu_num_dp_units                     4 # Number of DP units (default=0)
-gpgpu_num_int_units                    4 # Number of INT units (default=0)
-gpgpu_num_sfu_units                    4 # Number of SF units (default=1)
-gpgpu_num_tensor_core_units                    4 # Number of tensor_core units (default=1)
-gpgpu_num_mem_units                    1 # Number if ldst units (default=1) WARNING: not hooked up to anything
-gpgpu_scheduler                      gto # Scheduler configuration: < lrr | gto | two_level_active > If two_level_active:<num_active_warps>:<inner_prioritization>:<outer_prioritization>For complete list of prioritization values see shader.h enum scheduler_prioritization_typeDefault: gto
-gpgpu_concurrent_kernel_sm                    0 # Support concurrent kernels on a SM (default = disabled)
-gpgpu_perfect_inst_const_cache                    1 # perfect inst and const cache mode, so all inst and const hits in the cache(default = disabled)
-gpgpu_inst_fetch_throughput                    4 # the number of fetched intruction per warp each cycle
-gpgpu_reg_file_port_throughput                    2 # the number ports of the register file
-specialized_unit_1         0,4,4,4,4,BRA # specialized unit config {<enabled>,<num_units>:<latency>:<initiation>,<ID_OC_SPEC>:<OC_EX_SPEC>,<NAME>}
-specialized_unit_2         0,4,4,4,4,BRA # specialized unit config {<enabled>,<num_units>:<latency>:<initiation>,<ID_OC_SPEC>:<OC_EX_SPEC>,<NAME>}
-specialized_unit_3         0,4,4,4,4,BRA # specialized unit config {<enabled>,<num_units>:<latency>:<initiation>,<ID_OC_SPEC>:<OC_EX_SPEC>,<NAME>}
-specialized_unit_4         0,4,4,4,4,BRA # specialized unit config {<enabled>,<num_units>:<latency>:<initiation>,<ID_OC_SPEC>:<OC_EX_SPEC>,<NAME>}
-specialized_unit_5         0,4,4,4,4,BRA # specialized unit config {<enabled>,<num_units>:<latency>:<initiation>,<ID_OC_SPEC>:<OC_EX_SPEC>,<NAME>}
-specialized_unit_6         0,4,4,4,4,BRA # specialized unit config {<enabled>,<num_units>:<latency>:<initiation>,<ID_OC_SPEC>:<OC_EX_SPEC>,<NAME>}
-specialized_unit_7         0,4,4,4,4,BRA # specialized unit config {<enabled>,<num_units>:<latency>:<initiation>,<ID_OC_SPEC>:<OC_EX_SPEC>,<NAME>}
-specialized_unit_8         0,4,4,4,4,BRA # specialized unit config {<enabled>,<num_units>:<latency>:<initiation>,<ID_OC_SPEC>:<OC_EX_SPEC>,<NAME>}
-gpgpu_perf_sim_memcpy                    1 # Fill the L2 cache on memcpy
-gpgpu_simple_dram_model                    0 # simple_dram_model with fixed latency and BW
-gpgpu_dram_scheduler                    1 # 0 = fifo, 1 = FR-FCFS (defaul)
-gpgpu_dram_partition_queues          64:64:64:64 # i2$:$2d:d2$:$2i
-l2_ideal                               0 # Use a ideal L2 cache that always hit
-gpgpu_cache:dl2     S:32:128:24,L:B:m:L:P,A:192:4,32:0,32 # unified banked L2 data cache config  {<nsets>:<bsize>:<assoc>,<rep>:<wr>:<alloc>:<wr_alloc>,<mshr>:<N>:<merge>,<mq>}
-gpgpu_cache:dl2_texture_only                    0 # L2 cache used for texture only
-gpgpu_n_mem                           32 # number of memory modules (e.g. memory controllers) in gpu
-gpgpu_n_sub_partition_per_mchannel                    2 # number of memory subpartition in each memory module
-gpgpu_n_mem_per_ctrlr                    1 # number of memory chips per memory controller
-gpgpu_memlatency_stat                   14 # track and display latency statistics 0x2 enables MC, 0x4 enables queue logs
-gpgpu_frfcfs_dram_sched_queue_size                   64 # 0 = unlimited (default); # entries per chip
-gpgpu_dram_return_queue_size                  192 # 0 = unlimited (default); # entries per chip
-gpgpu_dram_buswidth                   16 # default = 4 bytes (8 bytes per cycle at DDR)
-gpgpu_dram_burst_length                    2 # Burst length of each DRAM request (default = 4 data bus cycle)
-dram_data_command_freq_ratio                    2 # Frequency ratio between DRAM data bus and command bus (default = 2 times, i.e. DDR)
-gpgpu_dram_timing_opt nbk=16:CCD=1:RRD=3:RCD=12:RAS=28:RP=12:RC=40: CL=12:WL=2:CDLR=3:WR=10:nbkgrp=4:CCDL=2:RTPL=3 # DRAM timing parameters = {nbk:tCCD:tRRD:tRCD:tRAS:tRP:tRC:CL:WL:tCDLR:tWR:nbkgrp:tCCDL:tRTPL}
-gpgpu_l2_rop_latency                  160 # ROP queue latency (default 85)
-dram_latency                         100 # DRAM latency (default 30)
-dram_dual_bus_interface                    1 # dual_bus_interface (default = 0) 
-dram_bnk_indexing_policy                    0 # dram_bnk_indexing_policy (0 = normal indexing, 1 = Xoring with the higher bits) (Default = 0)
-dram_bnkgrp_indexing_policy                    1 # dram_bnkgrp_indexing_policy (0 = take higher bits, 1 = take lower bits) (Default = 0)
-dram_seperate_write_queue_enable                    0 # Seperate_Write_Queue_Enable
-dram_write_queue_size             32:28:16 # Write_Queue_Size
-dram_elimnate_rw_turnaround                    0 # elimnate_rw_turnaround i.e set tWTR and tRTW = 0
-icnt_flit_size                        40 # icnt_flit_size
-gpgpu_mem_addr_mapping dramid@8;00000000.00000000.00000000.00000000.0000RRRR.RRRRRRRR.RBBBCCCB.CCCSSSSS # mapping memory address to dram model {dramid@<start bit>;<memory address map>}
-gpgpu_mem_addr_test                    0 # run sweep test to check address mapping for aliased address
-gpgpu_mem_address_mask                    1 # 0 = old addressing mask, 1 = new addressing mask, 2 = new add. mask + flipped bank sel and chip sel bits
-gpgpu_memory_partition_indexing                    2 # 0 = no indexing, 1 = bitwise xoring, 2 = IPoly, 3 = custom indexing
-gpuwattch_xml_file         gpuwattch.xml # GPUWattch XML file
-power_simulation_enabled                    0 # Turn on power simulator (1=On, 0=Off)
-power_per_cycle_dump                    0 # Dump detailed power output each cycle
-power_trace_enabled                    0 # produce a file for the power trace (1=On, 0=Off)
-power_trace_zlevel                     6 # Compression level of the power trace output log (0=no comp, 9=highest)
-steady_power_levels_enabled                    0 # produce a file for the steady power levels (1=On, 0=Off)
-steady_state_definition                  8:4 # allowed deviation:number of samples
-gpgpu_max_cycle                        0 # terminates gpu simulation early (0 = no limit)
-gpgpu_max_insn                         0 # terminates gpu simulation early (0 = no limit)
-gpgpu_max_cta                          0 # terminates gpu simulation early (0 = no limit)
-gpgpu_max_completed_cta                    0 # terminates gpu simulation early (0 = no limit)
-gpgpu_runtime_stat                   500 # display runtime statistics such as dram utilization {<freq>:<flag>}
-liveness_message_freq                    1 # Minimum number of seconds between simulation liveness messages (0 = always print)
-gpgpu_compute_capability_major                    7 # Major compute capability version number
-gpgpu_compute_capability_minor                    0 # Minor compute capability version number
-gpgpu_flush_l1_cache                    1 # Flush L1 cache at the end of each kernel call
-gpgpu_flush_l2_cache                    0 # Flush L2 cache at the end of each kernel call
-gpgpu_deadlock_detect                    1 # Stop the simulation at deadlock (1=on (default), 0=off)
-gpgpu_ptx_instruction_classification                    0 # if enabled will classify ptx instruction types per kernel (Max 255 kernels now)
-gpgpu_ptx_sim_mode                     0 # Select between Performance (default) or Functional simulation (1)
-gpgpu_clock_domains 1132.0:1132.0:1132.0:850.0 # Clock Domain Frequencies in MhZ {<Core Clock>:<ICNT Clock>:<L2 Clock>:<DRAM Clock>}
-gpgpu_max_concurrent_kernel                    8 # maximum kernels that can run concurrently on GPU
-gpgpu_cflog_interval                    0 # Interval between each snapshot in control flow logger
-visualizer_enabled                     0 # Turn on visualizer output (1=On, 0=Off)
-visualizer_outputfile                 NULL # Specifies the output log file for visualizer
-visualizer_zlevel                      6 # Compression level of the visualizer output log (0=no comp, 9=highest)
-gpgpu_stack_size_limit                 1024 # GPU thread stack size
-gpgpu_heap_size_limit              8388608 # GPU malloc heap size 198581b5804501ae349c6193fb54149e  /home/serkan/gcn/cuda/cudaDataLoader.o
Extracting PTX file and ptxas options    1: cudaDataLoader.1.sm_61.ptx -arch=sm_61
Extracting PTX file and ptxas options    2: cudaDataLoader.2.sm_61.ptx -arch=sm_61
Extracting PTX file and ptxas options    3: cudaDataLoader.3.sm_61.ptx -arch=sm_61
Extracting PTX file and ptxas options    4: cudaDataLoader.4.sm_61.ptx -arch=sm_61
Extracting PTX file and ptxas options    5: cudaDataLoader.5.sm_61.ptx -arch=sm_61
Extracting PTX file and ptxas options    6: cudaDataLoader.6.sm_61.ptx -arch=sm_61
Extracting PTX file and ptxas options    7: cudaDataLoader.7.sm_61.ptx -arch=sm_61
Extracting PTX file and ptxas options    8: cudaDataLoader.8.sm_61.ptx -arch=sm_61
Extracting PTX file and ptxas options    9: cudaDataLoader.9.sm_61.ptx -arch=sm_61
Extracting PTX file and ptxas options   10: cudaDataLoader.10.sm_61.ptx -arch=sm_61
Extracting PTX file and ptxas options   11: cudaDataLoader.11.sm_61.ptx -arch=sm_61
Extracting PTX file and ptxas options   12: cudaDataLoader.12.sm_61.ptx -arch=sm_61
Extracting PTX file and ptxas options   13: cudaDataLoader.13.sm_50.ptx -arch=sm_50

-gpgpu_runtime_sync_depth_limit                    2 # GPU device runtime synchronize depth
-gpgpu_runtime_pending_launch_count_limit                 2048 # GPU device runtime pending launch count
-trace_enabled                          0 # Turn on traces
-trace_components                    none # comma seperated list of traces to enable. Complete list found in trace_streams.tup. Default none
-trace_sampling_core                    0 # The core which is printed using CORE_DPRINTF. Default 0
-trace_sampling_memory_partition                   -1 # The memory partition which is printed using MEMPART_DPRINTF. Default -1 (i.e. all)
-enable_ptx_file_line_stats                    1 # Turn on PTX source line statistic profiling. (1 = On)
-ptx_line_stats_filename gpgpu_inst_stats.txt # Output file for PTX source line statistics.
-gpgpu_kernel_launch_latency                 5000 # Kernel launch latency in cycles. Default: 0
-gpgpu_cdp_enabled                      0 # Turn on CDP
-gpgpu_TB_launch_latency                    0 # thread block launch latency in cycles. Default: 0
DRAM Timing Options:
nbk                                    16 # number of banks
CCD                                     1 # column to column delay
RRD                                     3 # minimal delay between activation of rows in different banks
RCD                                    12 # row to column delay
RAS                                    28 # time needed to activate row
RP                                     12 # time needed to precharge (deactivate) row
RC                                     40 # row cycle time
CDLR                                    3 # switching from write to read (changes tWTR)
WR                                     10 # last data-in to row precharge
CL                                     12 # CAS latency
WL                                      2 # Write latency
nbkgrp                                  4 # number of bank groups
CCDL                                    2 # column to column delay between accesses to different bank groups
RTPL                                    3 # read to precharge delay between accesses to different bank groups
Total number of memory sub partition = 64
addr_dec_mask[CHIP]  = 0000000000001f00 	high:13 low:8
addr_dec_mask[BK]    = 00000000000e2000 	high:20 low:13
addr_dec_mask[ROW]   = 00000001fff00000 	high:33 low:20
addr_dec_mask[COL]   = 000000000001c0ff 	high:17 low:0
addr_dec_mask[BURST] = 000000000000001f 	high:5 low:0
sub_partition_id_mask = 0000000000002000
GPGPU-Sim uArch: clock freqs: 1132000000.000000:1132000000.000000:1132000000.000000:850000000.000000
GPGPU-Sim uArch: clock periods: 0.00000000088339222615:0.00000000088339222615:0.00000000088339222615:0.00000000117647058824
*** Initializing Memory Statistics ***
GPGPU-Sim uArch: performance model initialization complete.
self exe links to: /home/serkan/gcn/cuda/cudaDataLoader.o
self exe links to: /home/serkan/gcn/cuda/cudaDataLoader.o
8.0
GPGPU-Sim PTX: __cudaRegisterFatBinary, fat_cubin_handle = 1, filename=default
self exe links to: /home/serkan/gcn/cuda/cudaDataLoader.o
Running md5sum using "md5sum /home/serkan/gcn/cuda/cudaDataLoader.o "
self exe links to: /home/serkan/gcn/cuda/cudaDataLoader.o
Extracting specific PTX file named cudaDataLoader.1.sm_61.ptx 
Extracting specific PTX file named cudaDataLoader.2.sm_61.ptx 
Extracting specific PTX file named cudaDataLoader.3.sm_61.ptx 
Extracting specific PTX file named cudaDataLoader.4.sm_61.ptx 
Extracting specific PTX file named cudaDataLoader.5.sm_61.ptx 
Extracting specific PTX file named cudaDataLoader.6.sm_61.ptx 
Extracting specific PTX file named cudaDataLoader.7.sm_61.ptx 
Extracting specific PTX file named cudaDataLoader.8.sm_61.ptx 
Extracting specific PTX file named cudaDataLoader.9.sm_61.ptx 
Extracting specific PTX file named cudaDataLoader.10.sm_61.ptx 
Extracting specific PTX file named cudaDataLoader.11.sm_61.ptx 
Extracting specific PTX file named cudaDataLoader.12.sm_61.ptx 
Extracting specific PTX file named cudaDataLoader.13.sm_50.ptx 
Extracting specific PTX filExtracting PTX file and ptxas options   14: cudaDataLoader.14.sm_50.ptx -arch=sm_50
Extracting PTX file and ptxas options   15: cudaDataLoader.15.sm_50.ptx -arch=sm_50
Extracting PTX file and ptxas options   16: cudaDataLoader.16.sm_50.ptx -arch=sm_50
Extracting PTX file and ptxas options   17: cudaDataLoader.17.sm_50.ptx -arch=sm_50
Extracting PTX file and ptxas options   18: cudaDataLoader.18.sm_35.ptx -arch=sm_35
Extracting PTX file and ptxas options   19: cudaDataLoader.19.sm_50.ptx -arch=sm_50
Extracting PTX file and ptxas options   20: cudaDataLoader.20.sm_50.ptx -arch=sm_50
Extracting PTX file and ptxas options   21: cudaDataLoader.21.sm_30.ptx -arch=sm_30
Extracting PTX file and ptxas options   22: cudaDataLoader.22.sm_50.ptx -arch=sm_50
Extracting PTX file and ptxas options   23: cudaDataLoader.23.sm_50.ptx -arch=sm_50
e named cudaDataLoader.14.sm_50.ptx 
Extracting specific PTX file named cudaDataLoader.15.sm_50.ptx 
Extracting specific PTX file named cudaDataLoader.16.sm_50.ptx 
Extracting specific PTX file named cudaDataLoader.17.sm_50.ptx 
Extracting specific PTX file named cudaDataLoader.18.sm_35.ptx 
Extracting specific PTX file named cudaDataLoader.19.sm_50.ptx 
Extracting specific PTX file named cudaDataLoader.20.sm_50.ptx 
Extracting specific PTX file named cudaDataLoader.21.sm_30.ptx 
Extracting specific PTX file named cudaDataLoader.22.sm_50.ptx 
Extracting specific PTX file named cudaDataLoader.23.sm_50.ptx 
GPGPU-Sim PTX: __cudaRegisterFunction _Z15initIdentityGPUPPfii : hostFun 0x0x404313, fat_cubin_handle = 1
GPGPU-Sim PTX: Parsing cudaDataLoader.21.sm_30.ptx
GPGPU-Sim PTX: finished parsing EMBEDDED .ptx file cudaDataLoader.21.sm_30.ptx
GPGPU-Sim PTX: Parsing cudaDataLoader.18.sm_35.ptx
GPGPU-Sim PTX: finished parsing EMBEDDED .ptx file cudaDataLoader.18.sm_35.ptx
GPGPU-Sim PTX: Parsing cudaDataLoader.13.sm_50.ptx
GPGPU-Sim PTX: finished parsing EMBEDDED .ptx file cudaDataLoader.13.sm_50.ptx
GPGPU-Sim PTX: Parsing cudaDataLoader.14.sm_50.ptx
GPGPU-Sim PTX: allocating global region for "cublasSgemmTexA" from 0x100 to 0x104 (global memory space)
GPGPU-Sim PTX: allocating global region for "cublasSgemmTexB" from 0x104 to 0x108 (global memory space)
GPGPU-Sim PTX: allocating shared region for "_Z23gemm_kernel1x1_tex_coreIfLb1ELb0ELb0ELb0ELb0EEvPT_iiiiiiiiS1_S1_S0_S0_i$__cuda_local_var_25580_36_non_const_Bb" from 0x0 to 0x440 (shared memory space)
GPGPU-Sim PTX: allocating shared region for "_Z23gemm_kernel1x1_tex_coreIfLb1ELb0ELb0ELb0ELb0EEvPT_iiiiiiiiS1_S1_S0_S0_i$__cuda_local_var_25581_36_non_const_Abs" from 0x480 to 0x8c0 (shared memory space)
GPGPU-Sim PTX: instruction assembly for function '_Z23gemm_kernel1x1_tex_coreIfLb1ELb0ELb0ELb0ELb0EEvPT_iiiiiiiiS1_S1_S0_S0_i'...   done.
GPGPU-Sim PTX: allocating shared region for "_Z23gemm_kernel1x1_tex_coreIfLb1ELb0ELb0ELb0ELb1EEvPT_iiiiiiiiS1_S1_S0_S0_i$__cuda_local_var_25580_36_non_const_Bb" from 0x0 to 0x440 (shared memory space)
GPGPU-Sim PTX: allocating shared region for "_Z23gemm_kernel1x1_tex_coreIfLb1ELb0ELb0ELb0ELb1EEvPT_iiiiiiiiS1_S1_S0_S0_i$__cuda_local_var_25581_36_non_const_Abs" from 0x480 to 0x8c0 (shared memory space)
GPGPU-Sim PTX: instruction assembly for function '_Z23gemm_kernel1x1_tex_coreIfLb1ELb0ELb0ELb0ELb1EEvPT_iiiiiiiiS1_S1_S0_S0_i'...   done.
GPGPU-Sim PTX: allocating shared region for "_Z23gemm_kernel1x1_tex_coreIfLb1ELb0ELb0ELb1ELb0EEvPT_iiiiiiiiS1_S1_S0_S0_i$__cuda_local_var_25580_36_non_const_Bb" from 0x0 to 0x440 (shared memory space)
GPGPU-Sim PTX: allocating shared region for "_Z23gemm_kernel1x1_tex_coreIfLb1ELb0ELb0ELb1ELb0EEvPT_iiiiiiiiS1_S1_S0_S0_i$__cuda_local_var_25581_36_non_const_Abs" from 0x480 to 0x8c0 (shared memory space)
GPGPU-Sim PTX: instruction assembly for function '_Z23gemm_kernel1x1_tex_coreIfLb1ELb0ELb0ELb1ELb0EEvPT_iiiiiiiiS1_S1_S0_S0_i'...   done.
GPGPU-Sim PTX: allocating shared region for "_Z23gemm_kernel1x1_tex_coreIfLb1ELb0ELb0ELb1ELb1EEvPT_iiiiiiiiS1_S1_S0_S0_i$__cuda_local_var_25580_36_non_const_Bb" from 0x0 to 0x440 (shared memory space)
GPGPU-Sim PTX: allocating shared region for "_Z23gemm_kernel1x1_tex_coreIfLb1ELb0ELb0ELb1ELb1EEvPT_iiiiiiiiS1_S1_S0_S0_i$__cuda_local_var_25581_36_non_const_Abs" from 0x480 to 0x8c0 (shared memory space)
GPGPU-Sim PTX: instruction assembly for function '_Z23gemm_kernel1x1_tex_coreIfLb1ELb0ELb0ELb1ELb1EEvPT_iiiiiiiiS1_S1_S0_S0_i'...   done.
GPGPU-Sim PTX: allocating shared region for "_Z23gemm_kernel1x1_tex_coreIfLb0ELb0ELb0ELb0ELb0EEvPT_iiiiiiiiS1_S1_S0_S0_i$__cuda_local_var_25580_36_non_const_Bb" from 0x0 to 0x440 (shared memory space)
GPGPU-Sim PTX: allocating shared region for "_Z23gemm_kernel1x1_tex_coreIfLb0ELb0ELb0ELb0ELb0EEvPT_iiiiiiiiS1_S1_S0_S0_i$__cuda_local_var_25581_36_non_const_Abs" from 0x480 to 0x8c0 (shared memory space)
GPGPU-Sim PTX: instruction assembly for function '_Z23gemm_kernel1x1_tex_coreIfLb0ELb0ELb0ELb0ELb0EEvPT_iiiiiiiiS1_S1_S0_S0_i'...   done.
GPGPU-Sim PTX: allocating shared region for "_Z23gemm_kernel1x1_tex_coreIfLb0ELb0ELb0ELb0ELb1EEvPT_iiiiiiiiS1_S1_S0_S0_i$__cuda_local_var_25580_36_non_const_Bb" from 0x0 to 0x440 (shared memory space)
GPGPU-Sim PTX: allocating shared region for "_Z23gemm_kernel1x1_tex_coreIfLb0ELb0ELb0ELb0ELb1EEvPT_iiiiiiiiS1_S1_S0_S0_i$__cuda_local_var_25581_36_non_const_Abs" from 0x480 to 0x8c0 (shared memory space)
GPGPU-Sim PTX: instruction assembly for function '_Z23gemm_kernel1x1_tex_coreIfLb0ELb0ELb0ELb0ELb1EEvPT_iiiiiiiiS1_S1_S0_S0_i'...   done.
GPGPU-Sim PTX: allocating shared region for "_Z23gemm_kernel1x1_tex_coreIfLb0ELb0ELb0ELb1ELb0EEvPT_iiiiiiiiS1_S1_S0_S0_i$__cuda_local_var_25580_36_non_const_Bb" from 0x0 to 0x440 (shared memory space)
GPGPU-Sim PTX: allocating shared region for "_Z23gemm_kernel1x1_tex_coreIfLb0ELb0ELb0ELb1ELb0EEvPT_iiiiiiiiS1_S1_S0_S0_i$__cuda_local_var_25581_36_non_const_Abs" from 0x480 to 0x8c0 (shared memory space)
GPGPU-Sim PTX: instruction assembly for function '_Z23gemm_kernel1x1_tex_coreIfLb0ELb0ELb0ELb1ELb0EEvPT_iiiiiiiiS1_S1_S0_S0_i'...   done.
GPGPU-Sim PTX: allocating shared region for "_Z23gemm_kernel1x1_tex_coreIfLb0ELb0ELb0ELb1ELb1EEvPT_iiiiiiiiS1_S1_S0_S0_i$__cuda_local_var_25580_36_non_const_Bb" from 0x0 to 0x440 (shared memory space)
GPGPU-Sim PTX: allocating shared region for "_Z23gemm_kernel1x1_tex_coreIfLb0ELb0ELb0ELb1ELb1EEvPT_iiiiiiiiS1_S1_S0_S0_i$__cuda_local_var_25581_36_non_const_Abs" from 0x480 to 0x8c0 (shared memory space)
GPGPU-Sim PTX: instruction assembly for function '_Z23gemm_kernel1x1_tex_coreIfLb0ELb0ELb0ELb1ELb1EEvPT_iiiiiiiiS1_S1_S0_S0_i'...   done.
GPGPU-Sim PTX: allocating shared region for "_Z19gemm_kernel1x1_coreIfLb1ELb0ELb0ELb0ELb0EEvPT_PKS0_S3_iiiiiiS1_S1_S0_S0_i$__cuda_local_var_24205_36_non_const_Bb" from 0x0 to 0x440 (shared memory space)
GPGPU-Sim PTX: allocating shared region for "_Z19gemm_kernel1x1_coreIfLb1ELb0ELb0ELb0ELb0EEvPT_PKS0_S3_iiiiiiS1_S1_S0_S0_i$__cuda_local_var_24206_36_non_const_Abs" from 0x480 to 0x8c0 (shared memory space)
GPGPU-Sim PTX: instruction assembly for function '_Z19gemm_kernel1x1_coreIfLb1ELb0ELb0ELb0ELb0EEvPT_PKS0_S3_iiiiiiS1_S1_S0_S0_i'...   done.
GPGPU-Sim PTX: allocating shared region for "_Z19gemm_kernel1x1_coreIfLb1ELb0ELb0ELb0ELb1EEvPT_PKS0_S3_iiiiiiS1_S1_S0_S0_i$__cuda_local_var_24205_36_non_const_Bb" from 0x0 to 0x440 (shared memory space)
GPGPU-Sim PTX: allocating shared region for "_Z19gemm_kernel1x1_coreIfLb1ELb0ELb0ELb0ELb1EEvPT_PKS0_S3_iiiiiiS1_S1_S0_S0_i$__cuda_local_var_24206_36_non_const_Abs" from 0x480 to 0x8c0 (shared memory space)
GPGPU-Sim PTX: instruction assembly for function '_Z19gemm_kernel1x1_coreIfLb1ELb0ELb0ELb0ELb1EEvPT_PKS0_S3_iiiiiiS1_S1_S0_S0_i'...   done.
GPGPU-Sim PTX: allocating shared region for "_Z19gemm_kernel1x1_coreIfLb1ELb0ELb0ELb1ELb0EEvPT_PKS0_S3_iiiiiiS1_S1_S0_S0_i$__cuda_local_var_24205_36_non_const_Bb" from 0x0 to 0x440 (shared memory space)
GPGPU-Sim PTX: allocating shared region for "_Z19gemm_kernel1x1_coreIfLb1ELb0ELb0ELb1ELb0EEvPT_PKS0_S3_iiiiiiS1_S1_S0_S0_i$__cuda_local_var_24206_36_non_const_Abs" from 0x480 to 0x8c0 (shared memory space)
GPGPU-Sim PTX: instruction assembly for function '_Z19gemm_kernel1x1_coreIfLb1ELb0ELb0ELb1ELb0EEvPT_PKS0_S3_iiiiiiS1_S1_S0_S0_i'...   done.
GPGPU-Sim PTX: allocating shared region for "_Z19gemm_kernel1x1_coreIfLb1ELb0ELb0ELb1ELb1EEvPT_PKS0_S3_iiiiiiS1_S1_S0_S0_i$__cuda_local_var_24205_36_non_const_Bb" from 0x0 to 0x440 (shared memory space)
GPGPU-Sim PTX: allocating shared region for "_Z19gemm_kernel1x1_coreIfLb1ELb0ELb0ELb1ELb1EEvPT_PKS0_S3_iiiiiiS1_S1_S0_S0_i$__cuda_local_var_24206_36_non_const_Abs" from 0x480 to 0x8c0 (shared memory space)
GPGPU-Sim PTX: instruction assembly for function '_Z19gemm_kernel1x1_coreIfLb1ELb0ELb0ELb1ELb1EEvPT_PKS0_S3_iiiiiiS1_S1_S0_S0_i'...   done.
GPGPU-Sim PTX: allocating shared region for "_Z19gemm_kernel1x1_coreIfLb0ELb0ELb0ELb0ELb0EEvPT_PKS0_S3_iiiiiiS1_S1_S0_S0_i$__cuda_local_var_24205_36_non_const_Bb" from 0x0 to 0x440 (shared memory space)
GPGPU-Sim PTX: allocating shared region for "_Z19gemm_kernel1x1_coreIfLb0ELb0ELb0ELb0ELb0EEvPT_PKS0_S3_iiiiiiS1_S1_S0_S0_i$__cuda_local_var_24206_36_non_const_Abs" from 0x480 to 0x8c0 (shared memory space)
GPGPU-Sim PTX: instruction assembly for function '_Z19gemm_kernel1x1_coreIfLb0ELb0ELb0ELb0ELb0EEvPT_PKS0_S3_iiiiiiS1_S1_S0_S0_i'...   done.
GPGPU-Sim PTX: allocating shared region for "_Z19gemm_kernel1x1_coreIfLb0ELb0ELb0ELb0ELb1EEvPT_PKS0_S3_iiiiiiS1_S1_S0_S0_i$__cuda_local_var_24205_36_non_const_Bb" from 0x0 to 0x440 (shared memory space)
GPGPU-Sim PTX: allocating shared region for "_Z19gemm_kernel1x1_coreIfLb0ELb0ELb0ELb0ELb1EEvPT_PKS0_S3_iiiiiiS1_S1_S0_S0_i$__cuda_local_var_24206_36_non_const_Abs" from 0x480 to 0x8c0 (shared memory space)
GPGPU-Sim PTX: instruction assembly for function '_Z19gemm_kernel1x1_coreIfLb0ELb0ELb0ELb0ELb1EEvPT_PKS0_S3_iiiiiiS1_S1_S0_S0_i'...   done.
GPGPU-Sim PTX: allocating shared region for "_Z19gemm_kernel1x1_coreIfLb0ELb0ELb0ELb1ELb0EEvPT_PKS0_S3_iiiiiiS1_S1_S0_S0_i$__cuda_local_var_24205_36_non_const_Bb" from 0x0 to 0x440 (shared memory space)
GPGPU-Sim PTX: allocating shared region for "_Z19gemm_kernel1x1_coreIfLb0ELb0ELb0ELb1ELb0EEvPT_PKS0_S3_iiiiiiS1_S1_S0_S0_i$__cuda_local_var_24206_36_non_const_Abs" from 0x480 to 0x8c0 (shared memory space)
GPGPU-Sim PTX: instruction assembly for function '_Z19gemm_kernel1x1_coreIfLb0ELb0ELb0ELb1ELb0EEvPT_PKS0_S3_iiiiiiS1_S1_S0_S0_i'...   done.
GPGPU-Sim PTX: allocating shared region for "_Z19gemm_kernel1x1_coreIfLb0ELb0ELb0ELb1ELb1EEvPT_PKS0_S3_iiiiiiS1_S1_S0_S0_i$__cuda_local_var_24205_36_non_const_Bb" from 0x0 to 0x440 (shared memory space)
GPGPU-Sim PTX: allocating shared region for "_Z19gemm_kernel1x1_coreIfLb0ELb0ELb0ELb1ELb1EEvPT_PKS0_S3_iiiiiiS1_S1_S0_S0_i$__cuda_local_var_24206_36_non_const_Abs" from 0x480 to 0x8c0 (shared memory space)
GPGPU-Sim PTX: instruction assembly for function '_Z19gemm_kernel1x1_coreIfLb0ELb0ELb0ELb1ELb1EEvPT_PKS0_S3_iiiiiiS1_S1_S0_S0_i'...   done.
GPGPU-Sim PTX: allocating shared region for "_Z19gemm_kernel2x1_coreIfLb1ELb0ELb0ELb0ELb0EEvPT_PKS0_S3_iiiiiiS1_S1_S0_S0_i$__cuda_local_var_24729_36_non_const_Bb" from 0x0 to 0x840 (shared memory space)
GPGPU-Sim PTX: allocating shared region for "_Z19gemm_kernel2x1_coreIfLb1ELb0ELb0ELb0ELb0EEvPT_PKS0_S3_iiiiiiS1_S1_S0_S0_i$__cuda_local_var_24730_36_non_const_Abs" from 0x880 to 0x1100 (shared memory space)
GPGPU-Sim PTX: instruction assembly for function '_Z19gemm_kernel2x1_coreIfLb1ELb0ELb0ELb0ELb0EEvPT_PKS0_S3_iiiiiiS1_S1_S0_S0_i'...   done.
GPGPU-Sim PTX: allocating shared region for "_Z19gemm_kernel2x1_coreIfLb1ELb0ELb0ELb0ELb1EEvPT_PKS0_S3_iiiiiiS1_S1_S0_S0_i$__cuda_local_var_24729_36_non_const_Bb" from 0x0 to 0x840 (shared memory space)
GPGPU-Sim PTX: allocating shared region for "_Z19gemm_kernel2x1_coreIfLb1ELb0ELb0ELb0ELb1EEvPT_PKS0_S3_iiiiiiS1_S1_S0_S0_i$__cuda_local_var_24730_36_non_const_Abs" from 0x880 to 0x1100 (shared memory space)
GPGPU-Sim PTX: instruction assembly for function '_Z19gemm_kernel2x1_coreIfLb1ELb0ELb0ELb0ELb1EEvPT_PKS0_S3_iiiiiiS1_S1_S0_S0_i'...   done.
GPGPU-Sim PTX: allocating shared region for "_Z19gemm_kernel2x1_coreIfLb1ELb0ELb0ELb1ELb0EEvPT_PKS0_S3_iiiiiiS1_S1_S0_S0_i$__cuda_local_var_24729_36_non_const_Bb" from 0x0 to 0x840 (shared memory space)
GPGPU-Sim PTX: allocating shared region for "_Z19gemm_kernel2x1_coreIfLb1ELb0ELb0ELb1ELb0EEvPT_PKS0_S3_iiiiiiS1_S1_S0_S0_i$__cuda_local_var_24730_36_non_const_Abs" from 0x880 to 0x1100 (shared memory space)
GPGPU-Sim PTX: instruction assembly for function '_Z19gemm_kernel2x1_coreIfLb1ELb0ELb0ELb1ELb0EEvPT_PKS0_S3_iiiiiiS1_S1_S0_S0_i'...   done.
GPGPU-Sim PTX: allocating shared region for "_Z19gemm_kernel2x1_coreIfLb1ELb0ELb0ELb1ELb1EEvPT_PKS0_S3_iiiiiiS1_S1_S0_S0_i$__cuda_local_var_24729_36_non_const_Bb" from 0x0 to 0x840 (shared memory space)
GPGPU-Sim PTX: allocating shared region for "_Z19gemm_kernel2x1_coreIfLb1ELb0ELb0ELb1ELb1EEvPT_PKS0_S3_iiiiiiS1_S1_S0_S0_i$__cuda_local_var_24730_36_non_const_Abs" from 0x880 to 0x1100 (shared memory space)
GPGPU-Sim PTX: instruction assembly for function '_Z19gemm_kernel2x1_coreIfLb1ELb0ELb0ELb1ELb1EEvPT_PKS0_S3_iiiiiiS1_S1_S0_S0_i'...   done.
GPGPU-Sim PTX: allocating shared region for "_Z19gemm_kernel2x1_coreIfLb0ELb0ELb0ELb0ELb0EEvPT_PKS0_S3_iiiiiiS1_S1_S0_S0_i$__cuda_local_var_24729_36_non_const_Bb" from 0x0 to 0x840 (shared memory space)
GPGPU-Sim PTX: allocating shared region for "_Z19gemm_kernel2x1_coreIfLb0ELb0ELb0ELb0ELb0EEvPT_PKS0_S3_iiiiiiS1_S1_S0_S0_i$__cuda_local_var_24730_36_non_const_Abs" from 0x880 to 0x1100 (shared memory space)
GPGPU-Sim PTX: instruction assembly for function '_Z19gemm_kernel2x1_coreIfLb0ELb0ELb0ELb0ELb0EEvPT_PKS0_S3_iiiiiiS1_S1_S0_S0_i'...   done.
GPGPU-Sim PTX: allocating shared region for "_Z19gemm_kernel2x1_coreIfLb0ELb0ELb0ELb0ELb1EEvPT_PKS0_S3_iiiiiiS1_S1_S0_S0_i$__cuda_local_var_24729_36_non_const_Bb" from 0x0 to 0x840 (shared memory space)
GPGPU-Sim PTX: allocating shared region for "_Z19gemm_kernel2x1_coreIfLb0ELb0ELb0ELb0ELb1EEvPT_PKS0_S3_iiiiiiS1_S1_S0_S0_i$__cuda_local_var_24730_36_non_const_Abs" from 0x880 to 0x1100 (shared memory space)
GPGPU-Sim PTX: instruction assembly for function '_Z19gemm_kernel2x1_coreIfLb0ELb0ELb0ELb0ELb1EEvPT_PKS0_S3_iiiiiiS1_S1_S0_S0_i'...   done.
GPGPU-Sim PTX: allocating shared region for "_Z19gemm_kernel2x1_coreIfLb0ELb0ELb0ELb1ELb0EEvPT_PKS0_S3_iiiiiiS1_S1_S0_S0_i$__cuda_local_var_24729_36_non_const_Bb" from 0x0 to 0x840 (shared memory space)
GPGPU-Sim PTX: allocating shared region for "_Z19gemm_kernel2x1_coreIfLb0ELb0ELb0ELb1ELb0EEvPT_PKS0_S3_iiiiiiS1_S1_S0_S0_i$__cuda_local_var_24730_36_non_const_Abs" from 0x880 to 0x1100 (shared memory space)
GPGPU-Sim PTX: instruction assembly for function '_Z19gemm_kernel2x1_coreIfLb0ELb0ELb0ELb1ELb0EEvPT_PKS0_S3_iiiiiiS1_S1_S0_S0_i'...   done.
GPGPU-Sim PTX: allocating shared region for "_Z19gemm_kernel2x1_coreIfLb0ELb0ELb0ELb1ELb1EEvPT_PKS0_S3_iiiiiiS1_S1_S0_S0_i$__cuda_local_var_24729_36_non_const_Bb" from 0x0 to 0x840 (shared memory space)
GPGPU-Sim PTX: allocating shared region for "_Z19gemm_kernel2x1_coreIfLb0ELb0ELb0ELb1ELb1EEvPT_PKS0_S3_iiiiiiS1_S1_S0_S0_i$__cuda_local_var_24730_36_non_const_Abs" from 0x880 to 0x1100 (shared memory space)
GPGPU-Sim PTX: instruction assembly for function '_Z19gemm_kernel2x1_coreIfLb0ELb0ELb0ELb1ELb1EEvPT_PKS0_S3_iiiiiiS1_S1_S0_S0_i'...   done.
GPGPU-Sim PTX: allocating shared region for "_Z13gemmk1_kernelIfLi256ELi5ELb0ELb0ELb0ELb0EEv18cublasGemmk1ParamsIT_EPKS1_S4_PS1_$__cuda_local_var_24913_36_non_const_Ai" from 0x0 to 0x88 (shared memory space)
GPGPU-Sim PTX: allocating shared region for "_Z13gemmk1_kernelIfLi256ELi5ELb0ELb0ELb0ELb0EEv18cublasGemmk1ParamsIT_EPKS1_S4_PS1_$__cuda_local_var_24914_36_non_const_Bj" from 0x100 to 0x188 (shared memory space)
GPGPU-Sim PTX: instruction assembly for function '_Z13gemmk1_kernelIfLi256ELi5ELb0ELb0ELb0ELb0EEv18cublasGemmk1ParamsIT_EPKS1_S4_PS1_'...   done.
GPGPU-Sim PTX: allocating shared region for "_Z13gemmk1_kernelIfLi256ELi5ELb0ELb0ELb1ELb0EEv18cublasGemmk1ParamsIT_EPKS1_S4_PS1_$__cuda_local_var_24913_36_non_const_Ai" from 0x0 to 0x88 (shared memory space)
GPGPU-Sim PTX: allocating shared region for "_Z13gemmk1_kernelIfLi256ELi5ELb0ELb0ELb1ELb0EEv18cublasGemmk1ParamsIT_EPKS1_S4_PS1_$__cuda_local_var_24914_36_non_const_Bj" from 0x100 to 0x188 (shared memory space)
GPGPU-Sim PTX: instruction assembly for function '_Z13gemmk1_kernelIfLi256ELi5ELb0ELb0ELb1ELb0EEv18cublasGemmk1ParamsIT_EPKS1_S4_PS1_'...   done.
GPGPU-Sim PTX: allocating shared region for "_Z13gemmk1_kernelIfLi256ELi5ELb0ELb0ELb1ELb1EEv18cublasGemmk1ParamsIT_EPKS1_S4_PS1_$__cuda_local_var_24913_36_non_const_Ai" from 0x0 to 0x88 (shared memory space)
GPGPU-Sim PTX: allocating shared region for "_Z13gemmk1_kernelIfLi256ELi5ELb0ELb0ELb1ELb1EEv18cublasGemmk1ParamsIT_EPKS1_S4_PS1_$__cuda_local_var_24914_36_non_const_Bj" from 0x100 to 0x188 (shared memory space)
GPGPU-Sim PTX: instruction assembly for function '_Z13gemmk1_kernelIfLi256ELi5ELb0ELb0ELb1ELb1EEv18cublasGemmk1ParamsIT_EPKS1_S4_PS1_'...   done.
GPGPU-Sim PTX: allocating shared region for "_Z13gemmk1_kernelIfLi256ELi5ELb1ELb0ELb0ELb0EEv18cublasGemmk1ParamsIT_EPKS1_S4_PS1_$__cuda_local_var_24913_36_non_const_Ai" from 0x0 to 0x88 (shared memory space)
GPGPU-Sim PTX: allocating shared region for "_Z13gemmk1_kernelIfLi256ELi5ELb1ELb0ELb0ELb0EEv18cublasGemmk1ParamsIT_EPKS1_S4_PS1_$__cuda_local_var_24914_36_non_const_Bj" from 0x100 to 0x188 (shared memory space)
GPGPU-Sim PTX: instruction assembly for function '_Z13gemmk1_kernelIfLi256ELi5ELb1ELb0ELb0ELb0EEv18cublasGemmk1ParamsIT_EPKS1_S4_PS1_'...   done.
GPGPU-Sim PTX: allocating shared region for "_Z13gemmk1_kernelIfLi256ELi5ELb1ELb0ELb1ELb0EEv18cublasGemmk1ParamsIT_EPKS1_S4_PS1_$__cuda_local_var_24913_36_non_const_Ai" from 0x0 to 0x88 (shared memory space)
GPGPU-Sim PTX: allocating shared region for "_Z13gemmk1_kernelIfLi256ELi5ELb1ELb0ELb1ELb0EEv18cublasGemmk1ParamsIT_EPKS1_S4_PS1_$__cuda_local_var_24914_36_non_const_Bj" from 0x100 to 0x188 (shared memory space)
GPGPU-Sim PTX: instruction assembly for function '_Z13gemmk1_kernelIfLi256ELi5ELb1ELb0ELb1ELb0EEv18cublasGemmk1ParamsIT_EPKS1_S4_PS1_'...   done.
GPGPU-Sim PTX: allocating shared region for "_Z13gemmk1_kernelIfLi256ELi5ELb1ELb0ELb1ELb1EEv18cublasGemmk1ParamsIT_EPKS1_S4_PS1_$__cuda_local_var_24913_36_non_const_Ai" from 0x0 to 0x88 (shared memory space)
GPGPU-Sim PTX: allocating shared region for "_Z13gemmk1_kernelIfLi256ELi5ELb1ELb0ELb1ELb1EEv18cublasGemmk1ParamsIT_EPKS1_S4_PS1_$__cuda_local_var_24914_36_non_const_Bj" from 0x100 to 0x188 (shared memory space)
GPGPU-Sim PTX: instruction assembly for function '_Z13gemmk1_kernelIfLi256ELi5ELb1ELb0ELb1ELb1EEv18cublasGemmk1ParamsIT_EPKS1_S4_PS1_'...   done.
GPGPU-Sim PTX: allocating shared region for "_Z13gemmk1_kernelIfLi256ELi5ELb1ELb1ELb0ELb0EEv18cublasGemmk1ParamsIT_EPKS1_S4_PS1_$__cuda_local_var_24913_36_non_const_Ai" from 0x0 to 0x88 (shared memory space)
GPGPU-Sim PTX: allocating shared region for "_Z13gemmk1_kernelIfLi256ELi5ELb1ELb1ELb0ELb0EEv18cublasGemmk1ParamsIT_EPKS1_S4_PS1_$__cuda_local_var_24914_36_non_const_Bj" from 0x100 to 0x188 (shared memory space)
GPGPU-Sim PTX: instruction assembly for function '_Z13gemmk1_kernelIfLi256ELi5ELb1ELb1ELb0ELb0EEv18cublasGemmk1ParamsIT_EPKS1_S4_PS1_'...   done.
GPGPU-Sim PTX: allocating shared region for "_Z13gemmk1_kernelIfLi256ELi5ELb1ELb1ELb1ELb0EEv18cublasGemmk1ParamsIT_EPKS1_S4_PS1_$__cuda_local_var_24913_36_non_const_Ai" from 0x0 to 0x88 (shared memory space)
GPGPU-Sim PTX: allocating shared region for "_Z13gemmk1_kernelIfLi256ELi5ELb1ELb1ELb1ELb0EEv18cublasGemmk1ParamsIT_EPKS1_S4_PS1_$__cuda_local_var_24914_36_non_const_Bj" from 0x100 to 0x188 (shared memory space)
GPGPU-Sim PTX: instruction assembly for function '_Z13gemmk1_kernelIfLi256ELi5ELb1ELb1ELb1ELb0EEv18cublasGemmk1ParamsIT_EPKS1_S4_PS1_'...   done.
GPGPU-Sim PTX: allocating shared region for "_Z13gemmk1_kernelIfLi256ELi5ELb1ELb1ELb1ELb1EEv18cublasGemmk1ParamsIT_EPKS1_S4_PS1_$__cuda_local_var_24913_36_non_const_Ai" from 0x0 to 0x88 (shared memory space)
GPGPU-Sim PTX: allocating shared region for "_Z13gemmk1_kernelIfLi256ELi5ELb1ELb1ELb1ELb1EEv18cublasGemmk1ParamsIT_EPKS1_S4_PS1_$__cuda_local_var_24914_36_non_const_Bj" from 0x100 to 0x188 (shared memory space)
GPGPU-Sim PTX: instruction assembly for function '_Z13gemmk1_kernelIfLi256ELi5ELb1ELb1ELb1ELb1EEv18cublasGemmk1ParamsIT_EPKS1_S4_PS1_'...   done.
GPGPU-Sim PTX: finished parsing EMBEDDED .ptx file cudaDataLoader.14.sm_50.ptx
GPGPU-Sim PTX: Parsing cudaDataLoader.15.sm_50.ptx
GPGPU-Sim: Warning: .minnctapersm ignored. 
GPGPU-Sim PTX: allocating shared region for "_Z12sgemmNN_corePKfiS0_iPfiiS0_S0_ffi$__cuda_local_var_22761_39_non_const_bs" from 0x0 to 0x440 (shared memory space)
GPGPU-Sim PTX: instruction assembly for function '_Z12sgemmNN_corePKfiS0_iPfiiS0_S0_ffi'...   done.
GPGPU-Sim: Warning: .minnctapersm ignored. 
GPGPU-Sim PTX: allocating shared region for "_Z16gen_sgemmNN_corePKfiS0_iPfiiiiS0_S0_ffi$__cuda_local_var_22864_39_non_const_bs" from 0x0 to 0x440 (shared memory space)
GPGPU-Sim PTX: instruction assembly for function '_Z16gen_sgemmNN_corePKfiS0_iPfiiiiS0_S0_ffi'...   done.
GPGPU-Sim: Warning: .minnctapersm ignored. 
GPGPU-Sim PTX: allocating shared region for "_Z13sgemmNT2_corePKfiS0_iPfiiS0_S0_ffi$__cuda_local_var_22999_35_non_const_bs" from 0x0 to 0x100 (shared memory space)
GPGPU-Sim PTX: instruction assembly for function '_Z13sgemmNT2_corePKfiS0_iPfiiS0_S0_ffi'...   done.
GPGPU-Sim: Warning: .minnctapersm ignored. 
GPGPU-Sim PTX: allocating shared region for "_Z23gen_kmul4_sgemmNT2_corePKfiS0_iPfiiiiS0_S0_ffi$__cuda_local_var_23105_35_non_const_bs" from 0x0 to 0x100 (shared memory space)
GPGPU-Sim PTX: instruction assembly for function '_Z23gen_kmul4_sgemmNT2_corePKfiS0_iPfiiiiS0_S0_ffi'...   done.
GPGPU-Sim: Warning: .minnctapersm ignored. 
GPGPU-Sim PTX: allocating shared region for "_Z17gen_sgemmNT2_corePKfiS0_iPfiiiiS0_S0_ffi$__cuda_local_var_23231_35_non_const_bs" from 0x0 to 0x100 (shared memory space)
GPGPU-Sim PTX: instruction assembly for function '_Z17gen_sgemmNT2_corePKfiS0_iPfiiiiS0_S0_ffi'...   done.
GPGPU-Sim PTX: finished parsing EMBEDDED .ptx file cudaDataLoader.15.sm_50.ptx
GPGPU-Sim PTX: Parsing cudaDataLoader.16.sm_50.ptx
GPGPU-Sim PTX: allocating global region for "cublasSgemmMagmaTexA" from 0x108 to 0x10c (global memory space)
GPGPU-Sim PTX: allocating global region for "cublasSgemmMagmaTexB" from 0x10c to 0x110 (global memory space)
GPGPU-Sim PTX: allocating shared region for "_Z25magma_lds128_sgemm_kernelILb0ELb0ELi6ELi5ELi3ELi3ELi3EEviiiPKfiS1_iPfiiiS1_S1_ffi$__cuda_local_var_24108_36_non_const_As_z" from 0x0 to 0x880 (shared memory space)
GPGPU-Sim PTX: allocating shared region for "_Z25magma_lds128_sgemm_kernelILb0ELb0ELi6ELi5ELi3ELi3ELi3EEviiiPKfiS1_iPfiiiS1_S1_ffi$__cuda_local_var_24109_36_non_const_Bs_z" from 0x880 to 0xd00 (shared memory space)
GPGPU-Sim PTX: instruction assembly for function '_Z25magma_lds128_sgemm_kernelILb0ELb0ELi6ELi5ELi3ELi3ELi3EEviiiPKfiS1_iPfiiiS1_S1_ffi'...   done.
GPGPU-Sim PTX: allocating shared region for "_Z25magma_lds128_sgemm_kernelILb0ELb1ELi6ELi6ELi4ELi3ELi4EEviiiPKfiS1_iPfiiiS1_S1_ffi$__cuda_local_var_24108_36_non_const_As_z" from 0x0 to 0x1100 (shared memory space)
GPGPU-Sim PTX: allocating shared region for "_Z25magma_lds128_sgemm_kernelILb0ELb1ELi6ELi6ELi4ELi3ELi4EEviiiPKfiS1_iPfiiiS1_S1_ffi$__cuda_local_var_24109_36_non_const_Bs_z" from 0x1100 to 0x2200 (shared memory space)
GPGPU-Sim PTX: instruction assembly for function '_Z25magma_lds128_sgemm_kernelILb0ELb1ELi6ELi6ELi4ELi3ELi4EEviiiPKfiS1_iPfiiiS1_S1_ffi'...   done.
GPGPU-Sim PTX: allocating shared region for "_Z25magma_lds128_sgemm_kernelILb1ELb0ELi6ELi6ELi4ELi3ELi4EEviiiPKfiS1_iPfiiiS1_S1_ffi$__cuda_local_var_24108_36_non_const_As_z" from 0x0 to 0x1100 (shared memory space)
GPGPU-Sim PTX: allocating shared region for "_Z25magma_lds128_sgemm_kernelILb1ELb0ELi6ELi6ELi4ELi3ELi4EEviiiPKfiS1_iPfiiiS1_S1_ffi$__cuda_local_var_24109_36_non_const_Bs_z" from 0x1100 to 0x2200 (shared memory space)
GPGPU-Sim PTX: instruction assembly for function '_Z25magma_lds128_sgemm_kernelILb1ELb0ELi6ELi6ELi4ELi3ELi4EEviiiPKfiS1_iPfiiiS1_S1_ffi'...   done.
GPGPU-Sim PTX: allocating shared region for "_Z25magma_lds128_sgemm_kernelILb1ELb1ELi6ELi6ELi3ELi3ELi4EEviiiPKfiS1_iPfiiiS1_S1_ffi$__cuda_local_var_24108_36_non_const_As_z" from 0x0 to 0x880 (shared memory space)
GPGPU-Sim PTX: allocating shared region for "_Z25magma_lds128_sgemm_kernelILb1ELb1ELi6ELi6ELi3ELi3ELi4EEviiiPKfiS1_iPfiiiS1_S1_ffi$__cuda_local_var_24109_36_non_const_Bs_z" from 0x880 to 0x1100 (shared memory space)
GPGPU-Sim PTX: instruction assembly for function '_Z25magma_lds128_sgemm_kernelILb1ELb1ELi6ELi6ELi3ELi3ELi4EEviiiPKfiS1_iPfiiiS1_S1_ffi'...   done.
GPGPU-Sim PTX: finished parsing EMBEDDED .ptx file cudaDataLoader.16.sm_50.ptx
GPGPU-Sim PTX: Parsing cudaDataLoader.17.sm_50.ptx
GPGPU-Sim PTX: allocating shared region for "_Z20block_dot_kernel_valIfLi0ELi512ELi4EEviiiT_PKS0_iiS2_iiS0_PS0_i$__cuda_local_var_24042_36_non_const_partialSum" from 0x0 to 0x8000 (shared memory space)
GPGPU-Sim PTX: instruction assembly for function '_Z20block_dot_kernel_valIfLi0ELi512ELi4EEviiiT_PKS0_iiS2_iiS0_PS0_i'...   done.
GPGPU-Sim PTX: allocating shared region for "_Z20block_dot_kernel_refIfLi0ELi512ELi4EEviiiPKT_S2_iiS2_iiS2_PS0_i$__cuda_local_var_24032_36_non_const_partialSum" from 0x0 to 0x8000 (shared memory space)
GPGPU-Sim PTX: instruction assembly for function '_Z20block_dot_kernel_refIfLi0ELi512ELi4EEviiiPKT_S2_iiS2_iiS2_PS0_i'...   done.
GPGPU-Sim PTX: allocating shared region for "_Z20block_dot_kernel_valIdLi0ELi256ELi4EEviiiT_PKS0_iiS2_iiS0_PS0_i$__cuda_local_var_24042_36_non_const_partialSum" from 0x0 to 0x8000 (shared memory space)
GPGPU-Sim PTX: instruction assembly for function '_Z20block_dot_kernel_valIdLi0ELi256ELi4EEviiiT_PKS0_iiS2_iiS0_PS0_i'...   done.
GPGPU-Sim PTX: allocating shared region for "_Z20block_dot_kernel_refIdLi0ELi256ELi4EEviiiPKT_S2_iiS2_iiS2_PS0_i$__cuda_local_var_24032_36_non_const_partialSum" from 0x0 to 0x8000 (shared memory space)
GPGPU-Sim PTX: instruction assembly for function '_Z20block_dot_kernel_refIdLi0ELi256ELi4EEviiiPKT_S2_iiS2_iiS2_PS0_i'...   done.
GPGPU-Sim PTX: allocating shared region for "_Z20block_dot_kernel_valI6float2Li0ELi256ELi4EEviiiT_PKS1_iiS3_iiS1_PS1_i$__cuda_local_var_24042_36_non_const_partialSum" from 0x0 to 0x8000 (shared memory space)
GPGPU-Sim PTX: instruction assembly for function '_Z20block_dot_kernel_valI6float2Li0ELi256ELi4EEviiiT_PKS1_iiS3_iiS1_PS1_i'...   done.
GPGPU-Sim PTX: allocating shared region for "_Z20block_dot_kernel_refI6float2Li0ELi256ELi4EEviiiPKT_S3_iiS3_iiS3_PS1_i$__cuda_local_var_24032_36_non_const_partialSum" from 0x0 to 0x8000 (shared memory space)
GPGPU-Sim PTX: instruction assembly for function '_Z20block_dot_kernel_refI6float2Li0ELi256ELi4EEviiiPKT_S3_iiS3_iiS3_PS1_i'...   done.
GPGPU-Sim PTX: allocating shared region for "_Z20block_dot_kernel_valI6float2Li1ELi256ELi4EEviiiT_PKS1_iiS3_iiS1_PS1_i$__cuda_local_var_24042_36_non_const_partialSum" from 0x0 to 0x8000 (shared memory space)
GPGPU-Sim PTX: instruction assembly for function '_Z20block_dot_kernel_valI6float2Li1ELi256ELi4EEviiiT_PKS1_iiS3_iiS1_PS1_i'...   done.
GPGPU-Sim PTX: allocating shared region for "_Z20block_dot_kernel_refI6float2Li1ELi256ELi4EEviiiPKT_S3_iiS3_iiS3_PS1_i$__cuda_local_var_24032_36_non_const_partialSum" from 0x0 to 0x8000 (shared memory space)
GPGPU-Sim PTX: instruction assembly for function '_Z20block_dot_kernel_refI6float2Li1ELi256ELi4EEviiiPKT_S3_iiS3_iiS3_PS1_i'...   done.
GPGPU-Sim PTX: allocating shared region for "_Z20block_dot_kernel_valI7double2Li0ELi128ELi4EEviiiT_PKS1_iiS3_iiS1_PS1_i$__cuda_local_var_24042_36_non_const_partialSum" from 0x0 to 0x8000 (shared memory space)
GPGPU-Sim PTX: instruction assembly for function '_Z20block_dot_kernel_valI7double2Li0ELi128ELi4EEviiiT_PKS1_iiS3_iiS1_PS1_i'...   done.
GPGPU-Sim PTX: allocating shared region for "_Z20block_dot_kernel_refI7double2Li0ELi128ELi4EEviiiPKT_S3_iiS3_iiS3_PS1_i$__cuda_local_var_24032_36_non_const_partialSum" from 0x0 to 0x8000 (shared memory space)
GPGPU-Sim PTX: instruction assembly for function '_Z20block_dot_kernel_refI7double2Li0ELi128ELi4EEviiiPKT_S3_iiS3_iiS3_PS1_i'...   done.
GPGPU-Sim PTX: allocating shared region for "_Z20block_dot_kernel_valI7double2Li1ELi128ELi4EEviiiT_PKS1_iiS3_iiS1_PS1_i$__cuda_local_var_24042_36_non_const_partialSum" from 0x0 to 0x8000 (shared memory space)
GPGPU-Sim PTX: instruction assembly for function '_Z20block_dot_kernel_valI7double2Li1ELi128ELi4EEviiiT_PKS1_iiS3_iiS1_PS1_i'...   done.
GPGPU-Sim PTX: allocating shared region for "_Z20block_dot_kernel_refI7double2Li1ELi128ELi4EEviiiPKT_S3_iiS3_iiS3_PS1_i$__cuda_local_var_24032_36_non_const_partialSum" from 0x0 to 0x8000 (shared memory space)
GPGPU-Sim PTX: instruction assembly for function '_Z20block_dot_kernel_refI7double2Li1ELi128ELi4EEviiiPKT_S3_iiS3_iiS3_PS1_i'...   done.
GPGPU-Sim PTX: finished parsing EMBEDDED .ptx file cudaDataLoader.17.sm_50.ptx
GPGPU-Sim PTX: Parsing cudaDataLoader.19.sm_50.ptx
GPGPU-Sim PTX: finished parsing EMBEDDED .ptx file cudaDataLoader.19.sm_50.ptx
GPGPU-Sim PTX: Parsing cudaDataLoader.20.sm_50.ptx
GPGPU-Sim: Warning: .minnctapersm ignored. 
GPGPU-Sim PTX: allocating shared region for "_Z16gemmSN_NN_kernelIdddLi128ELi2ELi4ELi8ELi2ELi4EEv22cublasGemmSmallNParamsIT_T0_T1_EPKS1_S6_S1_S1_i$__cuda_local_var_24523_36_non_const_BB" from 0x0 to 0x2000 (shared memory space)
GPGPU-Sim PTX: allocating shared region for "_Z16gemmSN_NN_kernelIdddLi128ELi2ELi4ELi8ELi2ELi4EEv22cublasGemmSmallNParamsIT_T0_T1_EPKS1_S6_S1_S1_i$__cuda_local_var_24524_36_non_const_SDOT" from 0x2000 to 0x2800 (shared memory space)
GPGPU-Sim PTX: instruction assembly for function '_Z16gemmSN_NN_kernelIdddLi128ELi2ELi4ELi8ELi2ELi4EEv22cublasGemmSmallNParamsIT_T0_T1_EPKS1_S6_S1_S1_i'...   done.
GPGPU-Sim: Warning: .minnctapersm ignored. 
GPGPU-Sim PTX: allocating shared region for "_Z16gemmSN_NN_kernelIdddLi128ELi2ELi4ELi8ELi3ELi4EEv22cublasGemmSmallNParamsIT_T0_T1_EPKS1_S6_S1_S1_i$__cuda_local_var_24523_36_non_const_BB" from 0x0 to 0x3000 (shared memory space)
GPGPU-Sim PTX: allocating shared region for "_Z16gemmSN_NN_kernelIdddLi128ELi2ELi4ELi8ELi3ELi4EEv22cublasGemmSmallNParamsIT_T0_T1_EPKS1_S6_S1_S1_i$__cuda_local_var_24524_36_non_const_SDOT" from 0x3000 to 0x3c00 (shared memory space)
GPGPU-Sim PTX: instruction assembly for function '_Z16gemmSN_NN_kernelIdddLi128ELi2ELi4ELi8ELi3ELi4EEv22cublasGemmSmallNParamsIT_T0_T1_EPKS1_S6_S1_S1_i'...   done.
GPGPU-Sim: Warning: .minnctapersm ignored. 
GPGPU-Sim PTX: allocating shared region for "_Z16gemmSN_NN_kernelIdddLi128ELi2ELi4ELi8ELi4ELi4EEv22cublasGemmSmallNParamsIT_T0_T1_EPKS1_S6_S1_S1_i$__cuda_local_var_24523_36_non_const_BB" from 0x0 to 0x4000 (shared memory space)
GPGPU-Sim PTX: allocating shared region for "_Z16gemmSN_NN_kernelIdddLi128ELi2ELi4ELi8ELi4ELi4EEv22cublasGemmSmallNParamsIT_T0_T1_EPKS1_S6_S1_S1_i$__cuda_local_var_24524_36_non_const_SDOT" from 0x4000 to 0x5000 (shared memory space)
GPGPU-Sim PTX: instruction assembly for function '_Z16gemmSN_NN_kernelIdddLi128ELi2ELi4ELi8ELi4ELi4EEv22cublasGemmSmallNParamsIT_T0_T1_EPKS1_S6_S1_S1_i'...   done.
GPGPU-Sim: Warning: .minnctapersm ignored. 
GPGPU-Sim PTX: allocating shared region for "_Z16gemmSN_NN_kernelIdddLi128ELi2ELi4ELi8ELi5ELi4EEv22cublasGemmSmallNParamsIT_T0_T1_EPKS1_S6_S1_S1_i$__cuda_local_var_24523_36_non_const_BB" from 0x0 to 0x5000 (shared memory space)
GPGPU-Sim PTX: allocating shared region for "_Z16gemmSN_NN_kernelIdddLi128ELi2ELi4ELi8ELi5ELi4EEv22cublasGemmSmallNParamsIT_T0_T1_EPKS1_S6_S1_S1_i$__cuda_local_var_24524_36_non_const_SDOT" from 0x5000 to 0x6400 (shared memory space)
GPGPU-Sim PTX: instruction assembly for function '_Z16gemmSN_NN_kernelIdddLi128ELi2ELi4ELi8ELi5ELi4EEv22cublasGemmSmallNParamsIT_T0_T1_EPKS1_S6_S1_S1_i'...   done.
GPGPU-Sim: Warning: .minnctapersm ignored. 
GPGPU-Sim PTX: allocating shared region for "_Z16gemmSN_NN_kernelIdddLi128ELi2ELi4ELi8ELi6ELi4EEv22cublasGemmSmallNParamsIT_T0_T1_EPKS1_S6_S1_S1_i$__cuda_local_var_24523_36_non_const_BB" from 0x0 to 0x6000 (shared memory space)
GPGPU-Sim PTX: allocating shared region for "_Z16gemmSN_NN_kernelIdddLi128ELi2ELi4ELi8ELi6ELi4EEv22cublasGemmSmallNParamsIT_T0_T1_EPKS1_S6_S1_S1_i$__cuda_local_var_24524_36_non_const_SDOT" from 0x6000 to 0x7800 (shared memory space)
GPGPU-Sim PTX: instruction assembly for function '_Z16gemmSN_NN_kernelIdddLi128ELi2ELi4ELi8ELi6ELi4EEv22cublasGemmSmallNParamsIT_T0_T1_EPKS1_S6_S1_S1_i'...   done.
GPGPU-Sim: Warning: .minnctapersm ignored. 
GPGPU-Sim PTX: allocating shared region for "_Z16gemmSN_NN_kernelIdddLi128ELi2ELi4ELi8ELi7ELi4EEv22cublasGemmSmallNParamsIT_T0_T1_EPKS1_S6_S1_S1_i$__cuda_local_var_24523_36_non_const_BB" from 0x0 to 0x7000 (shared memory space)
GPGPU-Sim PTX: allocating shared region for "_Z16gemmSN_NN_kernelIdddLi128ELi2ELi4ELi8ELi7ELi4EEv22cublasGemmSmallNParamsIT_T0_T1_EPKS1_S6_S1_S1_i$__cuda_local_var_24524_36_non_const_SDOT" from 0x7000 to 0x8c00 (shared memory space)
GPGPU-Sim PTX: instruction assembly for function '_Z16gemmSN_NN_kernelIdddLi128ELi2ELi4ELi8ELi7ELi4EEv22cublasGemmSmallNParamsIT_T0_T1_EPKS1_S6_S1_S1_i'...   done.
GPGPU-Sim: Warning: .minnctapersm ignored. 
GPGPU-Sim PTX: allocating shared region for "_Z16gemmSN_NN_kernelIdddLi128ELi2ELi4ELi8ELi8ELi4EEv22cublasGemmSmallNParamsIT_T0_T1_EPKS1_S6_S1_S1_i$__cuda_local_var_24523_36_non_const_BB" from 0x0 to 0x8000 (shared memory space)
GPGPU-Sim PTX: allocating shared region for "_Z16gemmSN_NN_kernelIdddLi128ELi2ELi4ELi8ELi8ELi4EEv22cublasGemmSmallNParamsIT_T0_T1_EPKS1_S6_S1_S1_i$__cuda_local_var_24524_36_non_const_SDOT" from 0x8000 to 0xa000 (shared memory space)
GPGPU-Sim PTX: instruction assembly for function '_Z16gemmSN_NN_kernelIdddLi128ELi2ELi4ELi8ELi8ELi4EEv22cublasGemmSmallNParamsIT_T0_T1_EPKS1_S6_S1_S1_i'...   done.
GPGPU-Sim: Warning: .minnctapersm ignored. 
GPGPU-Sim PTX: allocating shared region for "_Z16gemmSN_NN_kernelIdddLi256ELi4ELi2ELi8ELi2ELi4EEv22cublasGemmSmallNParamsIT_T0_T1_EPKS1_S6_S1_S1_i$__cuda_local_var_24523_36_non_const_BB" from 0x0 to 0x2000 (shared memory space)
GPGPU-Sim PTX: allocating shared region for "_Z16gemmSN_NN_kernelIdddLi256ELi4ELi2ELi8ELi2ELi4EEv22cublasGemmSmallNParamsIT_T0_T1_EPKS1_S6_S1_S1_i$__cuda_local_var_24524_36_non_const_SDOT" from 0x2000 to 0x3000 (shared memory space)
GPGPU-Sim PTX: instruction assembly for function '_Z16gemmSN_NN_kernelIdddLi256ELi4ELi2ELi8ELi2ELi4EEv22cublasGemmSmallNParamsIT_T0_T1_EPKS1_S6_S1_S1_i'...   done.
GPGPU-Sim: Warning: .minnctapersm ignored. 
GPGPU-Sim PTX: allocating shared region for "_Z16gemmSN_NN_kernelIdddLi256ELi4ELi2ELi8ELi3ELi4EEv22cublasGemmSmallNParamsIT_T0_T1_EPKS1_S6_S1_S1_i$__cuda_local_var_24523_36_non_const_BB" from 0x0 to 0x3000 (shared memory space)
GPGPU-Sim PTX: allocating shared region for "_Z16gemmSN_NN_kernelIdddLi256ELi4ELi2ELi8ELi3ELi4EEv22cublasGemmSmallNParamsIT_T0_T1_EPKS1_S6_S1_S1_i$__cuda_local_var_24524_36_non_const_SDOT" from 0x3000 to 0x4800 (shared memory space)
GPGPU-Sim PTX: instruction assembly for function '_Z16gemmSN_NN_kernelIdddLi256ELi4ELi2ELi8ELi3ELi4EEv22cublasGemmSmallNParamsIT_T0_T1_EPKS1_S6_S1_S1_i'...   done.
GPGPU-Sim: Warning: .minnctapersm ignored. 
GPGPU-Sim PTX: allocating shared region for "_Z16gemmSN_NN_kernelIdddLi256ELi4ELi2ELi8ELi4ELi4EEv22cublasGemmSmallNParamsIT_T0_T1_EPKS1_S6_S1_S1_i$__cuda_local_var_24523_36_non_const_BB" from 0x0 to 0x4000 (shared memory space)
GPGPU-Sim PTX: allocating shared region for "_Z16gemmSN_NN_kernelIdddLi256ELi4ELi2ELi8ELi4ELi4EEv22cublasGemmSmallNParamsIT_T0_T1_EPKS1_S6_S1_S1_i$__cuda_local_var_24524_36_non_const_SDOT" from 0x4000 to 0x6000 (shared memory space)
GPGPU-Sim PTX: instruction assembly for function '_Z16gemmSN_NN_kernelIdddLi256ELi4ELi2ELi8ELi4ELi4EEv22cublasGemmSmallNParamsIT_T0_T1_EPKS1_S6_S1_S1_i'...   done.
GPGPU-Sim: Warning: .minnctapersm ignored. 
GPGPU-Sim PTX: allocating shared region for "_Z16gemmSN_NN_kernelIdddLi256ELi4ELi2ELi8ELi5ELi4EEv22cublasGemmSmallNParamsIT_T0_T1_EPKS1_S6_S1_S1_i$__cuda_local_var_24523_36_non_const_BB" from 0x0 to 0x5000 (shared memory space)
GPGPU-Sim PTX: allocating shared region for "_Z16gemmSN_NN_kernelIdddLi256ELi4ELi2ELi8ELi5ELi4EEv22cublasGemmSmallNParamsIT_T0_T1_EPKS1_S6_S1_S1_i$__cuda_local_var_24524_36_non_const_SDOT" from 0x5000 to 0x7800 (shared memory space)
GPGPU-Sim PTX: instruction assembly for function '_Z16gemmSN_NN_kernelIdddLi256ELi4ELi2ELi8ELi5ELi4EEv22cublasGemmSmallNParamsIT_T0_T1_EPKS1_S6_S1_S1_i'...   done.
GPGPU-Sim: Warning: .minnctapersm ignored. 
GPGPU-Sim PTX: allocating shared region for "_Z16gemmSN_NN_kernelIdddLi256ELi4ELi2ELi8ELi6ELi4EEv22cublasGemmSmallNParamsIT_T0_T1_EPKS1_S6_S1_S1_i$__cuda_local_var_24523_36_non_const_BB" from 0x0 to 0x6000 (shared memory space)
GPGPU-Sim PTX: allocating shared region for "_Z16gemmSN_NN_kernelIdddLi256ELi4ELi2ELi8ELi6ELi4EEv22cublasGemmSmallNParamsIT_T0_T1_EPKS1_S6_S1_S1_i$__cuda_local_var_24524_36_non_const_SDOT" from 0x6000 to 0x9000 (shared memory space)
GPGPU-Sim PTX: instruction assembly for function '_Z16gemmSN_NN_kernelIdddLi256ELi4ELi2ELi8ELi6ELi4EEv22cublasGemmSmallNParamsIT_T0_T1_EPKS1_S6_S1_S1_i'...   done.
GPGPU-Sim: Warning: .minnctapersm ignored. 
GPGPU-Sim PTX: allocating shared region for "_Z16gemmSN_NN_kernelIdddLi256ELi4ELi2ELi8ELi7ELi4EEv22cublasGemmSmallNParamsIT_T0_T1_EPKS1_S6_S1_S1_i$__cuda_local_var_24523_36_non_const_BB" from 0x0 to 0x7000 (shared memory space)
GPGPU-Sim PTX: allocating shared region for "_Z16gemmSN_NN_kernelIdddLi256ELi4ELi2ELi8ELi7ELi4EEv22cublasGemmSmallNParamsIT_T0_T1_EPKS1_S6_S1_S1_i$__cuda_local_var_24524_36_non_const_SDOT" from 0x7000 to 0xa800 (shared memory space)
GPGPU-Sim PTX: instruction assembly for function '_Z16gemmSN_NN_kernelIdddLi256ELi4ELi2ELi8ELi7ELi4EEv22cublasGemmSmallNParamsIT_T0_T1_EPKS1_S6_S1_S1_i'...   done.
GPGPU-Sim: Warning: .minnctapersm ignored. 
GPGPU-Sim PTX: allocating shared region for "_Z16gemmSN_NN_kernelIdddLi256ELi4ELi2ELi8ELi8ELi4EEv22cublasGemmSmallNParamsIT_T0_T1_EPKS1_S6_S1_S1_i$__cuda_local_var_24523_36_non_const_BB" from 0x0 to 0x8000 (shared memory space)
GPGPU-Sim PTX: allocating shared region for "_Z16gemmSN_NN_kernelIdddLi256ELi4ELi2ELi8ELi8ELi4EEv22cublasGemmSmallNParamsIT_T0_T1_EPKS1_S6_S1_S1_i$__cuda_local_var_24524_36_non_const_SDOT" from 0x8000 to 0xc000 (shared memory space)
GPGPU-Sim PTX: instruction assembly for function '_Z16gemmSN_NN_kernelIdddLi256ELi4ELi2ELi8ELi8ELi4EEv22cublasGemmSmallNParamsIT_T0_T1_EPKS1_S6_S1_S1_i'...   done.
GPGPU-Sim PTX: allocating shared region for "_Z16gemmSN_TN_kernelIdddLi128ELi16ELi2ELi4ELi2ELi2ELb1EEviiiPKT0_iS2_iPT1_iPKT_S7_S5_S5_ii$__cuda_local_var_24263_36_non_const_BB" from 0x0 to 0x1000 (shared memory space)
GPGPU-Sim PTX: allocating shared region for "_Z16gemmSN_TN_kernelIdddLi128ELi16ELi2ELi4ELi2ELi2ELb1EEviiiPKT0_iS2_iPT1_iPKT_S7_S5_S5_ii$__cuda_local_var_24264_36_non_const_SDOT" from 0x1000 to 0x1800 (shared memory space)
GPGPU-Sim PTX: instruction assembly for function '_Z16gemmSN_TN_kernelIdddLi128ELi16ELi2ELi4ELi2ELi2ELb1EEviiiPKT0_iS2_iPT1_iPKT_S7_S5_S5_ii'...   done.
GPGPU-Sim PTX: allocating shared region for "_Z16gemmSN_TN_kernelIdddLi128ELi16ELi2ELi4ELi4ELi4ELb0EEviiiPKT0_iS2_iPT1_iPKT_S7_S5_S5_ii$__cuda_local_var_24263_36_non_const_BB" from 0x0 to 0x2000 (shared memory space)
GPGPU-Sim PTX: allocating shared region for "_Z16gemmSN_TN_kernelIdddLi128ELi16ELi2ELi4ELi4ELi4ELb0EEviiiPKT0_iS2_iPT1_iPKT_S7_S5_S5_ii$__cuda_local_var_24264_36_non_const_SDOT" from 0x2000 to 0x3000 (shared memory space)
GPGPU-Sim PTX: instruction assembly for function '_Z16gemmSN_TN_kernelIdddLi128ELi16ELi2ELi4ELi4ELi4ELb0EEviiiPKT0_iS2_iPT1_iPKT_S7_S5_S5_ii'...   done.
GPGPU-Sim PTX: allocating shared region for "_Z16gemmSN_TN_kernelIdddLi128ELi16ELi2ELi4ELi4ELi4ELb1EEviiiPKT0_iS2_iPT1_iPKT_S7_S5_S5_ii$__cuda_local_var_24263_36_non_const_BB" from 0x0 to 0x2000 (shared memory space)
GPGPU-Sim PTX: allocating shared region for "_Z16gemmSN_TN_kernelIdddLi128ELi16ELi2ELi4ELi4ELi4ELb1EEviiiPKT0_iS2_iPT1_iPKT_S7_S5_S5_ii$__cuda_local_var_24264_36_non_const_SDOT" from 0x2000 to 0x3000 (shared memory space)
GPGPU-Sim PTX: instruction assembly for function '_Z16gemmSN_TN_kernelIdddLi128ELi16ELi2ELi4ELi4ELi4ELb1EEviiiPKT0_iS2_iPT1_iPKT_S7_S5_S5_ii'...   done.
GPGPU-Sim PTX: allocating shared region for "_Z16gemmSN_TN_kernelIdddLi128ELi16ELi2ELi4ELi6ELi7ELb0EEviiiPKT0_iS2_iPT1_iPKT_S7_S5_S5_ii$__cuda_local_var_24263_36_non_const_BB" from 0x0 to 0x3800 (shared memory space)
GPGPU-Sim PTX: allocating shared region for "_Z16gemmSN_TN_kernelIdddLi128ELi16ELi2ELi4ELi6ELi7ELb0EEviiiPKT0_iS2_iPT1_iPKT_S7_S5_S5_ii$__cuda_local_var_24264_36_non_const_SDOT" from 0x3800 to 0x5400 (shared memory space)
GPGPU-Sim PTX: instruction assembly for function '_Z16gemmSN_TN_kernelIdddLi128ELi16ELi2ELi4ELi6ELi7ELb0EEviiiPKT0_iS2_iPT1_iPKT_S7_S5_S5_ii'...   done.
GPGPU-Sim PTX: allocating shared region for "_Z16gemmSN_TN_kernelIdddLi128ELi16ELi2ELi4ELi8ELi9ELb0EEviiiPKT0_iS2_iPT1_iPKT_S7_S5_S5_ii$__cuda_local_var_24263_36_non_const_BB" from 0x0 to 0x4800 (shared memory space)
GPGPU-Sim PTX: allocating shared region for "_Z16gemmSN_TN_kernelIdddLi128ELi16ELi2ELi4ELi8ELi9ELb0EEviiiPKT0_iS2_iPT1_iPKT_S7_S5_S5_ii$__cuda_local_var_24264_36_non_const_SDOT" from 0x4800 to 0x6c00 (shared memory space)
GPGPU-Sim PTX: instruction assembly for function '_Z16gemmSN_TN_kernelIdddLi128ELi16ELi2ELi4ELi8ELi9ELb0EEviiiPKT0_iS2_iPT1_iPKT_S7_S5_S5_ii'...   done.
GPGPU-Sim PTX: allocating shared region for "_Z16gemmSN_TN_kernelIdddLi128ELi16ELi2ELi4ELi10ELi11ELb0EEviiiPKT0_iS2_iPT1_iPKT_S7_S5_S5_ii$__cuda_local_var_24263_36_non_const_BB" from 0x0 to 0x5800 (shared memory space)
GPGPU-Sim PTX: allocating shared region for "_Z16gemmSN_TN_kernelIdddLi128ELi16ELi2ELi4ELi10ELi11ELb0EEviiiPKT0_iS2_iPT1_iPKT_S7_S5_S5_ii$__cuda_local_var_24264_36_non_const_SDOT" from 0x5800 to 0x8400 (shared memory space)
GPGPU-Sim PTX: instruction assembly for function '_Z16gemmSN_TN_kernelIdddLi128ELi16ELi2ELi4ELi10ELi11ELb0EEviiiPKT0_iS2_iPT1_iPKT_S7_S5_S5_ii'...   done.
GPGPU-Sim PTX: allocating shared region for "_Z16gemmSN_TN_kernelIdddLi128ELi16ELi2ELi4ELi14ELi15ELb0EEviiiPKT0_iS2_iPT1_iPKT_S7_S5_S5_ii$__cuda_local_var_24263_36_non_const_BB" from 0x0 to 0x7800 (shared memory space)
GPGPU-Sim PTX: allocating shared region for "_Z16gemmSN_TN_kernelIdddLi128ELi16ELi2ELi4ELi14ELi15ELb0EEviiiPKT0_iS2_iPT1_iPKT_S7_S5_S5_ii$__cuda_local_var_24264_36_non_const_SDOT" from 0x7800 to 0xb400 (shared memory space)
GPGPU-Sim PTX: instruction assembly for function '_Z16gemmSN_TN_kernelIdddLi128ELi16ELi2ELi4ELi14ELi15ELb0EEviiiPKT0_iS2_iPT1_iPKT_S7_S5_S5_ii'...   done.
GPGPU-Sim: Warning: .minnctapersm ignored. 
GPGPU-Sim PTX: allocating shared region for "_Z16gemmSN_NN_kernelIfffLi128ELi2ELi4ELi8ELi2ELi4EEv22cublasGemmSmallNParamsIT_T0_T1_EPKS1_S6_S1_S1_i$__cuda_local_var_24523_36_non_const_BB" from 0x0 to 0x1000 (shared memory space)
GPGPU-Sim PTX: allocating shared region for "_Z16gemmSN_NN_kernelIfffLi128ELi2ELi4ELi8ELi2ELi4EEv22cublasGemmSmallNParamsIT_T0_T1_EPKS1_S6_S1_S1_i$__cuda_local_var_24524_36_non_const_SDOT" from 0x1000 to 0x1400 (shared memory space)
GPGPU-Sim PTX: instruction assembly for function '_Z16gemmSN_NN_kernelIfffLi128ELi2ELi4ELi8ELi2ELi4EEv22cublasGemmSmallNParamsIT_T0_T1_EPKS1_S6_S1_S1_i'...   done.
GPGPU-Sim: Warning: .minnctapersm ignored. 
GPGPU-Sim PTX: allocating shared region for "_Z16gemmSN_NN_kernelIfffLi128ELi2ELi4ELi8ELi3ELi4EEv22cublasGemmSmallNParamsIT_T0_T1_EPKS1_S6_S1_S1_i$__cuda_local_var_24523_36_non_const_BB" from 0x0 to 0x1800 (shared memory space)
GPGPU-Sim PTX: allocating shared region for "_Z16gemmSN_NN_kernelIfffLi128ELi2ELi4ELi8ELi3ELi4EEv22cublasGemmSmallNParamsIT_T0_T1_EPKS1_S6_S1_S1_i$__cuda_local_var_24524_36_non_const_SDOT" from 0x1800 to 0x1e00 (shared memory space)
GPGPU-Sim PTX: instruction assembly for function '_Z16gemmSN_NN_kernelIfffLi128ELi2ELi4ELi8ELi3ELi4EEv22cublasGemmSmallNParamsIT_T0_T1_EPKS1_S6_S1_S1_i'...   done.
GPGPU-Sim: Warning: .minnctapersm ignored. 
GPGPU-Sim PTX: allocating shared region for "_Z16gemmSN_NN_kernelIfffLi128ELi2ELi4ELi8ELi4ELi4EEv22cublasGemmSmallNParamsIT_T0_T1_EPKS1_S6_S1_S1_i$__cuda_local_var_24523_36_non_const_BB" from 0x0 to 0x2000 (shared memory space)
GPGPU-Sim PTX: allocating shared region for "_Z16gemmSN_NN_kernelIfffLi128ELi2ELi4ELi8ELi4ELi4EEv22cublasGemmSmallNParamsIT_T0_T1_EPKS1_S6_S1_S1_i$__cuda_local_var_24524_36_non_const_SDOT" from 0x2000 to 0x2800 (shared memory space)
GPGPU-Sim PTX: instruction assembly for function '_Z16gemmSN_NN_kernelIfffLi128ELi2ELi4ELi8ELi4ELi4EEv22cublasGemmSmallNParamsIT_T0_T1_EPKS1_S6_S1_S1_i'...   done.
GPGPU-Sim: Warning: .minnctapersm ignored. 
GPGPU-Sim PTX: allocating shared region for "_Z16gemmSN_NN_kernelIfffLi128ELi2ELi4ELi8ELi5ELi4EEv22cublasGemmSmallNParamsIT_T0_T1_EPKS1_S6_S1_S1_i$__cuda_local_var_24523_36_non_const_BB" from 0x0 to 0x2800 (shared memory space)
GPGPU-Sim PTX: allocating shared region for "_Z16gemmSN_NN_kernelIfffLi128ELi2ELi4ELi8ELi5ELi4EEv22cublasGemmSmallNParamsIT_T0_T1_EPKS1_S6_S1_S1_i$__cuda_local_var_24524_36_non_const_SDOT" from 0x2800 to 0x3200 (shared memory space)
GPGPU-Sim PTX: instruction assembly for function '_Z16gemmSN_NN_kernelIfffLi128ELi2ELi4ELi8ELi5ELi4EEv22cublasGemmSmallNParamsIT_T0_T1_EPKS1_S6_S1_S1_i'...   done.
GPGPU-Sim: Warning: .minnctapersm ignored. 
GPGPU-Sim PTX: allocating shared region for "_Z16gemmSN_NN_kernelIfffLi128ELi2ELi4ELi8ELi6ELi4EEv22cublasGemmSmallNParamsIT_T0_T1_EPKS1_S6_S1_S1_i$__cuda_local_var_24523_36_non_const_BB" from 0x0 to 0x3000 (shared memory space)
GPGPU-Sim PTX: allocating shared region for "_Z16gemmSN_NN_kernelIfffLi128ELi2ELi4ELi8ELi6ELi4EEv22cublasGemmSmallNParamsIT_T0_T1_EPKS1_S6_S1_S1_i$__cuda_local_var_24524_36_non_const_SDOT" from 0x3000 to 0x3c00 (shared memory space)
GPGPU-Sim PTX: instruction assembly for function '_Z16gemmSN_NN_kernelIfffLi128ELi2ELi4ELi8ELi6ELi4EEv22cublasGemmSmallNParamsIT_T0_T1_EPKS1_S6_S1_S1_i'...   done.
GPGPU-Sim: Warning: .minnctapersm ignored. 
GPGPU-Sim PTX: allocating shared region for "_Z16gemmSN_NN_kernelIfffLi128ELi2ELi4ELi8ELi7ELi4EEv22cublasGemmSmallNParamsIT_T0_T1_EPKS1_S6_S1_S1_i$__cuda_local_var_24523_36_non_const_BB" from 0x0 to 0x3800 (shared memory space)
GPGPU-Sim PTX: allocating shared region for "_Z16gemmSN_NN_kernelIfffLi128ELi2ELi4ELi8ELi7ELi4EEv22cublasGemmSmallNParamsIT_T0_T1_EPKS1_S6_S1_S1_i$__cuda_local_var_24524_36_non_const_SDOT" from 0x3800 to 0x4600 (shared memory space)
GPGPU-Sim PTX: instruction assembly for function '_Z16gemmSN_NN_kernelIfffLi128ELi2ELi4ELi8ELi7ELi4EEv22cublasGemmSmallNParamsIT_T0_T1_EPKS1_S6_S1_S1_i'...   done.
GPGPU-Sim: Warning: .minnctapersm ignored. 
GPGPU-Sim PTX: allocating shared region for "_Z16gemmSN_NN_kernelIfffLi128ELi2ELi4ELi8ELi8ELi4EEv22cublasGemmSmallNParamsIT_T0_T1_EPKS1_S6_S1_S1_i$__cuda_local_var_24523_36_non_const_BB" from 0x0 to 0x4000 (shared memory space)
GPGPU-Sim PTX: allocating shared region for "_Z16gemmSN_NN_kernelIfffLi128ELi2ELi4ELi8ELi8ELi4EEv22cublasGemmSmallNParamsIT_T0_T1_EPKS1_S6_S1_S1_i$__cuda_local_var_24524_36_non_const_SDOT" from 0x4000 to 0x5000 (shared memory space)
GPGPU-Sim PTX: instruction assembly for function '_Z16gemmSN_NN_kernelIfffLi128ELi2ELi4ELi8ELi8ELi4EEv22cublasGemmSmallNParamsIT_T0_T1_EPKS1_S6_S1_S1_i'...   done.
GPGPU-Sim: Warning: .minnctapersm ignored. 
GPGPU-Sim PTX: allocating shared region for "_Z16gemmSN_NN_kernelIfffLi256ELi4ELi2ELi8ELi2ELi4EEv22cublasGemmSmallNParamsIT_T0_T1_EPKS1_S6_S1_S1_i$__cuda_local_var_24523_36_non_const_BB" from 0x0 to 0x1000 (shared memory space)
GPGPU-Sim PTX: allocating shared region for "_Z16gemmSN_NN_kernelIfffLi256ELi4ELi2ELi8ELi2ELi4EEv22cublasGemmSmallNParamsIT_T0_T1_EPKS1_S6_S1_S1_i$__cuda_local_var_24524_36_non_const_SDOT" from 0x1000 to 0x1800 (shared memory space)
GPGPU-Sim PTX: instruction assembly for function '_Z16gemmSN_NN_kernelIfffLi256ELi4ELi2ELi8ELi2ELi4EEv22cublasGemmSmallNParamsIT_T0_T1_EPKS1_S6_S1_S1_i'...   done.
GPGPU-Sim: Warning: .minnctapersm ignored. 
GPGPU-Sim PTX: allocating shared region for "_Z16gemmSN_NN_kernelIfffLi256ELi4ELi2ELi8ELi3ELi4EEv22cublasGemmSmallNParamsIT_T0_T1_EPKS1_S6_S1_S1_i$__cuda_local_var_24523_36_non_const_BB" from 0x0 to 0x1800 (shared memory space)
GPGPU-Sim PTX: allocating shared region for "_Z16gemmSN_NN_kernelIfffLi256ELi4ELi2ELi8ELi3ELi4EEv22cublasGemmSmallNParamsIT_T0_T1_EPKS1_S6_S1_S1_i$__cuda_local_var_24524_36_non_const_SDOT" from 0x1800 to 0x2400 (shared memory space)
GPGPU-Sim PTX: instruction assembly for function '_Z16gemmSN_NN_kernelIfffLi256ELi4ELi2ELi8ELi3ELi4EEv22cublasGemmSmallNParamsIT_T0_T1_EPKS1_S6_S1_S1_i'...   done.
GPGPU-Sim: Warning: .minnctapersm ignored. 
GPGPU-Sim PTX: allocating shared region for "_Z16gemmSN_NN_kernelIfffLi256ELi4ELi2ELi8ELi4ELi4EEv22cublasGemmSmallNParamsIT_T0_T1_EPKS1_S6_S1_S1_i$__cuda_local_var_24523_36_non_const_BB" from 0x0 to 0x2000 (shared memory space)
GPGPU-Sim PTX: allocating shared region for "_Z16gemmSN_NN_kernelIfffLi256ELi4ELi2ELi8ELi4ELi4EEv22cublasGemmSmallNParamsIT_T0_T1_EPKS1_S6_S1_S1_i$__cuda_local_var_24524_36_non_const_SDOT" from 0x2000 to 0x3000 (shared memory space)
GPGPU-Sim PTX: instruction assembly for function '_Z16gemmSN_NN_kernelIfffLi256ELi4ELi2ELi8ELi4ELi4EEv22cublasGemmSmallNParamsIT_T0_T1_EPKS1_S6_S1_S1_i'...   done.
GPGPU-Sim: Warning: .minnctapersm ignored. 
GPGPU-Sim PTX: allocating shared region for "_Z16gemmSN_NN_kernelIfffLi256ELi4ELi2ELi8ELi5ELi4EEv22cublasGemmSmallNParamsIT_T0_T1_EPKS1_S6_S1_S1_i$__cuda_local_var_24523_36_non_const_BB" from 0x0 to 0x2800 (shared memory space)
GPGPU-Sim PTX: allocating shared region for "_Z16gemmSN_NN_kernelIfffLi256ELi4ELi2ELi8ELi5ELi4EEv22cublasGemmSmallNParamsIT_T0_T1_EPKS1_S6_S1_S1_i$__cuda_local_var_24524_36_non_const_SDOT" from 0x2800 to 0x3c00 (shared memory space)
GPGPU-Sim PTX: instruction assembly for function '_Z16gemmSN_NN_kernelIfffLi256ELi4ELi2ELi8ELi5ELi4EEv22cublasGemmSmallNParamsIT_T0_T1_EPKS1_S6_S1_S1_i'...   done.
GPGPU-Sim: Warning: .minnctapersm ignored. 
GPGPU-Sim PTX: allocating shared region for "_Z16gemmSN_NN_kernelIfffLi256ELi4ELi2ELi8ELi6ELi4EEv22cublasGemmSmallNParamsIT_T0_T1_EPKS1_S6_S1_S1_i$__cuda_local_var_24523_36_non_const_BB" from 0x0 to 0x3000 (shared memory space)
GPGPU-Sim PTX: allocating shared region for "_Z16gemmSN_NN_kernelIfffLi256ELi4ELi2ELi8ELi6ELi4EEv22cublasGemmSmallNParamsIT_T0_T1_EPKS1_S6_S1_S1_i$__cuda_local_var_24524_36_non_const_SDOT" from 0x3000 to 0x4800 (shared memory space)
GPGPU-Sim PTX: instruction assembly for function '_Z16gemmSN_NN_kernelIfffLi256ELi4ELi2ELi8ELi6ELi4EEv22cublasGemmSmallNParamsIT_T0_T1_EPKS1_S6_S1_S1_i'...   done.
GPGPU-Sim: Warning: .minnctapersm ignored. 
GPGPU-Sim PTX: allocating shared region for "_Z16gemmSN_NN_kernelIfffLi256ELi4ELi2ELi8ELi7ELi4EEv22cublasGemmSmallNParamsIT_T0_T1_EPKS1_S6_S1_S1_i$__cuda_local_var_24523_36_non_const_BB" from 0x0 to 0x3800 (shared memory space)
GPGPU-Sim PTX: allocating shared region for "_Z16gemmSN_NN_kernelIfffLi256ELi4ELi2ELi8ELi7ELi4EEv22cublasGemmSmallNParamsIT_T0_T1_EPKS1_S6_S1_S1_i$__cuda_local_var_24524_36_non_const_SDOT" from 0x3800 to 0x5400 (shared memory space)
GPGPU-Sim PTX: instruction assembly for function '_Z16gemmSN_NN_kernelIfffLi256ELi4ELi2ELi8ELi7ELi4EEv22cublasGemmSmallNParamsIT_T0_T1_EPKS1_S6_S1_S1_i'...   done.
GPGPU-Sim: Warning: .minnctapersm ignored. 
GPGPU-Sim PTX: allocating shared region for "_Z16gemmSN_NN_kernelIfffLi256ELi4ELi2ELi8ELi8ELi4EEv22cublasGemmSmallNParamsIT_T0_T1_EPKS1_S6_S1_S1_i$__cuda_local_var_24523_36_non_const_BB" from 0x0 to 0x4000 (shared memory space)
GPGPU-Sim PTX: allocating shared region for "_Z16gemmSN_NN_kernelIfffLi256ELi4ELi2ELi8ELi8ELi4EEv22cublasGemmSmallNParamsIT_T0_T1_EPKS1_S6_S1_S1_i$__cuda_local_var_24524_36_non_const_SDOT" from 0x4000 to 0x6000 (shared memory space)
GPGPU-Sim PTX: instruction assembly for function '_Z16gemmSN_NN_kernelIfffLi256ELi4ELi2ELi8ELi8ELi4EEv22cublasGemmSmallNParamsIT_T0_T1_EPKS1_S6_S1_S1_i'...   done.
GPGPU-Sim PTX: allocating shared region for "_Z16gemmSN_TN_kernelIfffLi128ELi16ELi2ELi4ELi2ELi2ELb1EEviiiPKT0_iS2_iPT1_iPKT_S7_S5_S5_ii$__cuda_local_var_24263_36_non_const_BB" from 0x0 to 0x800 (shared memory space)
GPGPU-Sim PTX: allocating shared region for "_Z16gemmSN_TN_kernelIfffLi128ELi16ELi2ELi4ELi2ELi2ELb1EEviiiPKT0_iS2_iPT1_iPKT_S7_S5_S5_ii$__cuda_local_var_24264_36_non_const_SDOT" from 0x800 to 0xc00 (shared memory space)
GPGPU-Sim PTX: instruction assembly for function '_Z16gemmSN_TN_kernelIfffLi128ELi16ELi2ELi4ELi2ELi2ELb1EEviiiPKT0_iS2_iPT1_iPKT_S7_S5_S5_ii'...   done.
GPGPU-Sim PTX: allocating shared region for "_Z16gemmSN_TN_kernelIfffLi128ELi16ELi2ELi4ELi4ELi4ELb0EEviiiPKT0_iS2_iPT1_iPKT_S7_S5_S5_ii$__cuda_local_var_24263_36_non_const_BB" from 0x0 to 0x1000 (shared memory space)
GPGPU-Sim PTX: allocating shared region for "_Z16gemmSN_TN_kernelIfffLi128ELi16ELi2ELi4ELi4ELi4ELb0EEviiiPKT0_iS2_iPT1_iPKT_S7_S5_S5_ii$__cuda_local_var_24264_36_non_const_SDOT" from 0x1000 to 0x1800 (shared memory space)
GPGPU-Sim PTX: instruction assembly for function '_Z16gemmSN_TN_kernelIfffLi128ELi16ELi2ELi4ELi4ELi4ELb0EEviiiPKT0_iS2_iPT1_iPKT_S7_S5_S5_ii'...   done.
GPGPU-Sim PTX: allocating shared region for "_Z16gemmSN_TN_kernelIfffLi128ELi16ELi2ELi4ELi4ELi4ELb1EEviiiPKT0_iS2_iPT1_iPKT_S7_S5_S5_ii$__cuda_local_var_24263_36_non_const_BB" from 0x0 to 0x1000 (shared memory space)
GPGPU-Sim PTX: allocating shared region for "_Z16gemmSN_TN_kernelIfffLi128ELi16ELi2ELi4ELi4ELi4ELb1EEviiiPKT0_iS2_iPT1_iPKT_S7_S5_S5_ii$__cuda_local_var_24264_36_non_const_SDOT" from 0x1000 to 0x1800 (shared memory space)
[...]

BW Util details:
bwutil = 0.297160 
total_CMD = 288693 
util_bw = 85788 
Wasted_Col = 41442 
Wasted_Row = 10725 
Idle = 150738 

BW Util Bottlenecks: 
RCDc_limit = 6923 
RCDWRc_limit = 14326 
WTRc_limit = 4904 
RTWc_limit = 26809 
CCDLc_limit = 33758 
rwq = 0 
CCDLc_limit_alone = 30329 
WTRc_limit_alone = 4364 
RTWc_limit_alone = 23920 

Commands details: 
total_CMD = 288693 
n_nop = 198617 
Read = 37222 
Write = 0 
L2_Alloc = 0 
L2_WB = 48566 
n_act = 4862 
n_pre = 4846 
n_ref = 0 
n_req = 49382 
total_req = 85788 

Dual Bus Interface Util: 
issued_total_row = 9708 
issued_total_col = 85788 
Row_Bus_Util =  0.033627 
CoL_Bus_Util = 0.297160 
Either_Row_CoL_Bus_Util = 0.312013 
Issued_on_Two_Bus_Simul_Util = 0.018774 
issued_two_Eff = 0.060171 
queue_avg = 5.569986 


dram_util_bins: 0 0 0 0 0 0 0 0 0 0
dram_eff_bins: 0 0 0 0 0 0 0 0 0 0
mrqq: max=64 avg=5.56999
Memory Partition 31: 
Cache L2_bank_062:
MSHR contents

Cache L2_bank_063:
MSHR contents

In Dram Latency Queue (total = 0): 
DRAM[31]: 16 bks, busW=16 BL=2 CL=12, tRRD=3 tCCD=1, tRCD=12 tRAS=28 tRP=12 tRC=40
n_cmd=288693 n_nop=198498 n_act=4845 n_pre=4829 n_ref_event=0 n_req=49451 n_rd=37283 n_rd_L2_A=0 n_write=0 n_wr_bk=48610 bw_util=0.2975
n_activity=160367 dram_eff=0.5356
bk0: 2290a 266752i bk1: 2372a 264118i bk2: 2353a 266647i bk3: 2344a 266305i bk4: 2491a 262194i bk5: 2328a 266870i bk6: 2234a 266997i bk7: 2389a 265152i bk8: 2299a 266056i bk9: 2310a 264307i bk10: 2264a 267897i bk11: 2281a 266010i bk12: 2329a 264929i bk13: 2335a 265143i bk14: 2345a 265365i bk15: 2319a 266245i 

------------------------------------------------------------------------

Row_Buffer_Locality = 0.902024
Row_Buffer_Locality_read = 0.956012
Row_Buffer_Locality_write = 0.736604
Bank_Level_Parallism = 3.020683
Bank_Level_Parallism_Col = 2.666651
Bank_Level_Parallism_Ready = 1.525025
write_to_read_ratio_blp_rw_average = 0.656434
GrpLevelPara = 1.943693 

BW Util details:
bwutil = 0.297524 
total_CMD = 288693 
util_bw = 85893 
Wasted_Col = 41111 
Wasted_Row = 11227 
Idle = 150462 

BW Util Bottlenecks: 
RCDc_limit = 6434 
RCDWRc_limit = 14290 
WTRc_limit = 4546 
RTWc_limit = 26052 
CCDLc_limit = 33095 
rwq = 0 
CCDLc_limit_alone = 29673 
WTRc_limit_alone = 4082 
RTWc_limit_alone = 23094 

Commands details: 
total_CMD = 288693 
n_nop = 198498 
Read = 37283 
Write = 0 
L2_Alloc = 0 
L2_WB = 48610 
n_act = 4845 
n_pre = 4829 
n_ref = 0 
n_req = 49451 
total_req = 85893 

Dual Bus Interface Util: 
issued_total_row = 9674 
issued_total_col = 85893 
Row_Bus_Util =  0.033510 
CoL_Bus_Util = 0.297524 
Either_Row_CoL_Bus_Util = 0.312425 
Issued_on_Two_Bus_Simul_Util = 0.018608 
issued_two_Eff = 0.059560 
queue_avg = 5.325096 


dram_util_bins: 0 0 0 0 0 0 0 0 0 0
dram_eff_bins: 0 0 0 0 0 0 0 0 0 0
mrqq: max=64 avg=5.3251

========= L2 cache stats =========
L2_cache_bank[0]: Access = 69547, Miss = 50741, Miss_rate = 0.730, Pending_hits = 1632, Reservation_fails = 6247
L2_cache_bank[1]: Access = 109106, Miss = 50941, Miss_rate = 0.467, Pending_hits = 1669, Reservation_fails = 5043
L2_cache_bank[2]: Access = 69118, Miss = 50710, Miss_rate = 0.734, Pending_hits = 1600, Reservation_fails = 6305
L2_cache_bank[3]: Access = 108909, Miss = 50951, Miss_rate = 0.468, Pending_hits = 1708, Reservation_fails = 5805
L2_cache_bank[4]: Access = 69631, Miss = 50752, Miss_rate = 0.729, Pending_hits = 1710, Reservation_fails = 5826
L2_cache_bank[5]: Access = 109111, Miss = 51012, Miss_rate = 0.468, Pending_hits = 1702, Reservation_fails = 5142
L2_cache_bank[6]: Access = 69402, Miss = 50774, Miss_rate = 0.732, Pending_hits = 1587, Reservation_fails = 5708
L2_cache_bank[7]: Access = 108886, Miss = 50994, Miss_rate = 0.468, Pending_hits = 1669, Reservation_fails = 6133
L2_cache_bank[8]: Access = 69327, Miss = 50691, Miss_rate = 0.731, Pending_hits = 1603, Reservation_fails = 6239
L2_cache_bank[9]: Access = 109208, Miss = 50903, Miss_rate = 0.466, Pending_hits = 1708, Reservation_fails = 5636
L2_cache_bank[10]: Access = 69251, Miss = 50712, Miss_rate = 0.732, Pending_hits = 1606, Reservation_fails = 5796
L2_cache_bank[11]: Access = 109004, Miss = 50868, Miss_rate = 0.467, Pending_hits = 1714, Reservation_fails = 5013
L2_cache_bank[12]: Access = 68733, Miss = 50525, Miss_rate = 0.735, Pending_hits = 1549, Reservation_fails = 5553
L2_cache_bank[13]: Access = 108787, Miss = 50857, Miss_rate = 0.467, Pending_hits = 1641, Reservation_fails = 5399
L2_cache_bank[14]: Access = 68864, Miss = 50572, Miss_rate = 0.734, Pending_hits = 1560, Reservation_fails = 5073
L2_cache_bank[15]: Access = 108544, Miss = 50883, Miss_rate = 0.469, Pending_hits = 1693, Reservation_fails = 5721
L2_cache_bank[16]: Access = 68839, Miss = 50654, Miss_rate = 0.736, Pending_hits = 1559, Reservation_fails = 6569
L2_cache_bank[17]: Access = 109453, Miss = 50937, Miss_rate = 0.465, Pending_hits = 1660, Reservation_fails = 6072
L2_cache_bank[18]: Access = 69290, Miss = 50685, Miss_rate = 0.731, Pending_hits = 1507, Reservation_fails = 6656
L2_cache_bank[19]: Access = 109096, Miss = 50921, Miss_rate = 0.467, Pending_hits = 1696, Reservation_fails = 4992
CUBLAS operation is successful!
GPGPU-Sim: synchronize waiting for inactive GPU simulation
GPGPU-Sim API: Stream Manager State
L2_cache_bank[20]: Access = 69024, Miss = 50651, Miss_rate = 0.734, Pending_hits = 1638, Reservation_fails = 5539
L2_cache_bank[21]: Access = 108728, Miss = 50941, Miss_rate = 0.469, Pending_hits = 1683, Reservation_fails = 5023
L2_cache_bank[22]: Access = 69002, Miss = 50700, Miss_rate = 0.735, Pending_hits = 1614, Reservation_fails = 6849
L2_cache_bank[23]: Access = 108643, Miss = 50892, Miss_rate = 0.468, Pending_hits = 1675, Reservation_fails = 5641
L2_cache_bank[24]: Access = 69663, Miss = 50625, Miss_rate = 0.727, Pending_hits = 1623, Reservation_fails = 6091
L2_cache_bank[25]: Access = 109139, Miss = 50994, Miss_rate = 0.467, Pending_hits = 1717, Reservation_fails = 7555
L2_cache_bank[26]: Access = 69995, Miss = 50646, Miss_rate = 0.724, Pending_hits = 1601, Reservation_fails = 5541
L2_cache_bank[27]: Access = 109110, Miss = 50952, Miss_rate = 0.467, Pending_hits = 1668, Reservation_fails = 5070
L2_cache_bank[28]: Access = 69501, Miss = 50668, Miss_rate = 0.729, Pending_hits = 1676, Reservation_fails = 6449
L2_cache_bank[29]: Access = 108766, Miss = 50960, Miss_rate = 0.469, Pending_hits = 1677, Reservation_fails = 6382
L2_cache_bank[30]: Access = 68984, Miss = 50633, Miss_rate = 0.734, Pending_hits = 1646, Reservation_fails = 7325
L2_cache_bank[31]: Access = 108849, Miss = 51027, Miss_rate = 0.469, Pending_hits = 1669, Reservation_fails = 5288
L2_cache_bank[32]: Access = 70087, Miss = 50896, Miss_rate = 0.726, Pending_hits = 1850, Reservation_fails = 5876
L2_cache_bank[33]: Access = 68636, Miss = 50910, Miss_rate = 0.742, Pending_hits = 1691, Reservation_fails = 7768
L2_cache_bank[34]: Access = 70273, Miss = 50902, Miss_rate = 0.724, Pending_hits = 1818, Reservation_fails = 6011
L2_cache_bank[35]: Access = 68490, Miss = 50862, Miss_rate = 0.743, Pending_hits = 1676, Reservation_fails = 7621
L2_cache_bank[36]: Access = 70473, Miss = 50869, Miss_rate = 0.722, Pending_hits = 1797, Reservation_fails = 6115
L2_cache_bank[37]: Access = 108226, Miss = 50943, Miss_rate = 0.471, Pending_hits = 1745, Reservation_fails = 7615
L2_cache_bank[38]: Access = 70473, Miss = 50794, Miss_rate = 0.721, Pending_hits = 1848, Reservation_fails = 6110
L2_cache_bank[39]: Access = 87862, Miss = 50870, Miss_rate = 0.579, Pending_hits = 1612, Reservation_fails = 8087
L2_cache_bank[40]: Access = 70078, Miss = 50759, Miss_rate = 0.724, Pending_hits = 1810, Reservation_fails = 6803
L2_cache_bank[41]: Access = 68215, Miss = 50867, Miss_rate = 0.746, Pending_hits = 1528, Reservation_fails = 7125
L2_cache_bank[42]: Access = 70208, Miss = 50774, Miss_rate = 0.723, Pending_hits = 1842, Reservation_fails = 7143
L2_cache_bank[43]: Access = 67720, Miss = 50806, Miss_rate = 0.750, Pending_hits = 1514, Reservation_fails = 7512
L2_cache_bank[44]: Access = 70324, Miss = 50808, Miss_rate = 0.722, Pending_hits = 1833, Reservation_fails = 6567
L2_cache_bank[45]: Access = 67890, Miss = 50849, Miss_rate = 0.749, Pending_hits = 1537, Reservation_fails = 6964
L2_cache_bank[46]: Access = 69693, Miss = 50821, Miss_rate = 0.729, Pending_hits = 1810, Reservation_fails = 6656
L2_cache_bank[47]: Access = 68285, Miss = 50854, Miss_rate = 0.745, Pending_hits = 1570, Reservation_fails = 7052
L2_cache_bank[48]: Access = 69862, Miss = 50815, Miss_rate = 0.727, Pending_hits = 1817, Reservation_fails = 6264
L2_cache_bank[49]: Access = 68577, Miss = 50874, Miss_rate = 0.742, Pending_hits = 1645, Reservation_fails = 8531
L2_cache_bank[50]: Access = 109423, Miss = 50818, Miss_rate = 0.464, Pending_hits = 1740, Reservation_fails = 5556
L2_cache_bank[51]: Access = 68199, Miss = 50850, Miss_rate = 0.746, Pending_hits = 1697, Reservation_fails = 7753
L2_cache_bank[52]: Access = 70320, Miss = 50813, Miss_rate = 0.723, Pending_hits = 1712, Reservation_fails = 6695
L2_cache_bank[53]: Access = 68460, Miss = 50849, Miss_rate = 0.743, Pending_hits = 1655, Reservation_fails = 8852
L2_cache_bank[54]: Access = 70626, Miss = 50820, Miss_rate = 0.720, Pending_hits = 1742, Reservation_fails = 6294
L2_cache_bank[55]: Access = 68539, Miss = 50840, Miss_rate = 0.742, Pending_hits = 1659, Reservation_fails = 7294
L2_cache_bank[56]: Access = 109900, Miss = 50796, Miss_rate = 0.462, Pending_hits = 1732, Reservation_fails = 6121
L2_cache_bank[57]: Access = 68832, Miss = 51045, Miss_rate = 0.742, Pending_hits = 1685, Reservation_fails = 5678
L2_cache_bank[58]: Access = 109928, Miss = 50821, Miss_rate = 0.462, Pending_hits = 1733, Reservation_fails = 6118
L2_cache_bank[59]: Access = 68869, Miss = 51095, Miss_rate = 0.742, Pending_hits = 1693, Reservation_fails = 6106
L2_cache_bank[60]: Access = 109922, Miss = 50835, Miss_rate = 0.462, Pending_hits = 1741, Reservation_fails = 7585
L2_cache_bank[61]: Access = 68564, Miss = 50983, Miss_rate = 0.744, Pending_hits = 1638, Reservation_fails = 5855
L2_cache_bank[62]: Access = 110055, Miss = 50850, Miss_rate = 0.462, Pending_hits = 1733, Reservation_fails = 6509
L2_cache_bank[63]: Access = 68637, Miss = 50989, Miss_rate = 0.743, Pending_hits = 1754, Reservation_fails = 6814
L2_total_cache_accesses = 5327156
L2_total_cache_misses = 3253449
L2_total_cache_miss_rate = 0.6107
L2_total_cache_pending_hits = 107517
L2_total_cache_reservation_fails = 406731
L2_total_cache_breakdown:
	L2_cache_stats_breakdown[GLOBAL_ACC_R][HIT] = 1965228
	L2_cache_stats_breakdown[GLOBAL_ACC_R][HIT_RESERVED] = 107508
	L2_cache_stats_breakdown[GLOBAL_ACC_R][MISS] = 297350
	L2_cache_stats_breakdown[GLOBAL_ACC_R][RESERVATION_FAIL] = 406731
	L2_cache_stats_breakdown[GLOBAL_ACC_R][SECTOR_MISS] = 889857
	L2_cache_stats_breakdown[LOCAL_ACC_R][HIT] = 0
	L2_cache_stats_breakdown[LOCAL_ACC_R][HIT_RESERVED] = 0
	L2_cache_stats_breakdown[LOCAL_ACC_R][MISS] = 0
	L2_cache_stats_breakdown[LOCAL_ACC_R][RESERVATION_FAIL] = 0
	L2_cache_stats_breakdown[LOCAL_ACC_R][SECTOR_MISS] = 0
	L2_cache_stats_breakdown[CONST_ACC_R][HIT] = 0
	L2_cache_stats_breakdown[CONST_ACC_R][HIT_RESERVED] = 0
	L2_cache_stats_breakdown[CONST_ACC_R][MISS] = 0
	L2_cache_stats_breakdown[CONST_ACC_R][RESERVATION_FAIL] = 0
	L2_cache_stats_breakdown[CONST_ACC_R][SECTOR_MISS] = 0
	L2_cache_stats_breakdown[TEXTURE_ACC_R][HIT] = 0
	L2_cache_stats_breakdown[TEXTURE_ACC_R][HIT_RESERVED] = 0
	L2_cache_stats_breakdown[TEXTURE_ACC_R][MISS] = 0
	L2_cache_stats_breakdown[TEXTURE_ACC_R][RESERVATION_FAIL] = 0
	L2_cache_stats_breakdown[TEXTURE_ACC_R][SECTOR_MISS] = 0
	L2_cache_stats_breakdown[GLOBAL_ACC_W][HIT] = 962
	L2_cache_stats_breakdown[GLOBAL_ACC_W][HIT_RESERVED] = 9
	L2_cache_stats_breakdown[GLOBAL_ACC_W][MISS] = 486104
	L2_cache_stats_breakdown[GLOBAL_ACC_W][RESERVATION_FAIL] = 0
	L2_cache_stats_breakdown[GLOBAL_ACC_W][SECTOR_MISS] = 1580138
	L2_cache_stats_breakdown[LOCAL_ACC_W][HIT] = 0
	L2_cache_stats_breakdown[LOCAL_ACC_W][HIT_RESERVED] = 0
	L2_cache_stats_breakdown[LOCAL_ACC_W][MISS] = 0
	L2_cache_stats_breakdown[LOCAL_ACC_W][RESERVATION_FAIL] = 0
	L2_cache_stats_breakdown[LOCAL_ACC_W][SECTOR_MISS] = 0
	L2_cache_stats_breakdown[L1_WRBK_ACC][HIT] = 0
	L2_cache_stats_breakdown[L1_WRBK_ACC][HIT_RESERVED] = 0
	L2_cache_stats_breakdown[L1_WRBK_ACC][MISS] = 0
	L2_cache_stats_breakdown[L1_WRBK_ACC][RESERVATION_FAIL] = 0
	L2_cache_stats_breakdown[L1_WRBK_ACC][SECTOR_MISS] = 0
	L2_cache_stats_breakdown[L2_WRBK_ACC][HIT] = 0
	L2_cache_stats_breakdown[L2_WRBK_ACC][HIT_RESERVED] = 0
	L2_cache_stats_breakdown[L2_WRBK_ACC][MISS] = 0
	L2_cache_stats_breakdown[L2_WRBK_ACC][RESERVATION_FAIL] = 0
	L2_cache_stats_breakdown[L2_WRBK_ACC][SECTOR_MISS] = 0
	L2_cache_stats_breakdown[INST_ACC_R][HIT] = 0
	L2_cache_stats_breakdown[INST_ACC_R][HIT_RESERVED] = 0
	L2_cache_stats_breakdown[INST_ACC_R][MISS] = 0
	L2_cache_stats_breakdown[INST_ACC_R][RESERVATION_FAIL] = 0
	L2_cache_stats_breakdown[INST_ACC_R][SECTOR_MISS] = 0
	L2_cache_stats_breakdown[L1_WR_ALLOC_R][HIT] = 0
	L2_cache_stats_breakdown[L1_WR_ALLOC_R][HIT_RESERVED] = 0
	L2_cache_stats_breakdown[L1_WR_ALLOC_R][MISS] = 0
	L2_cache_stats_breakdown[L1_WR_ALLOC_R][RESERVATION_FAIL] = 0
	L2_cache_stats_breakdown[L1_WR_ALLOC_R][SECTOR_MISS] = 0
	L2_cache_stats_breakdown[L2_WR_ALLOC_R][HIT] = 0
	L2_cache_stats_breakdown[L2_WR_ALLOC_R][HIT_RESERVED] = 0
	L2_cache_stats_breakdown[L2_WR_ALLOC_R][MISS] = 0
	L2_cache_stats_breakdown[L2_WR_ALLOC_R][RESERVATION_FAIL] = 0
	L2_cache_stats_breakdown[L2_WR_ALLOC_R][SECTOR_MISS] = 0
	L2_cache_stats_breakdown[GLOBAL_ACC_R][TOTAL_ACCESS] = 3259943
	L2_cache_stats_breakdown[GLOBAL_ACC_W][TOTAL_ACCESS] = 2067213

ABBOOOV!
 PC=0x10888 (cudaDataLoader.15.sm_50.ptx:1956) st.global.f32 [%rd2], %f704; total: 678, miss: 678
 PC=0x108d0 (cudaDataLoader.15.sm_50.ptx:1968) st.global.f32 [%rd162], %f705; total: 846, miss: 846
 PC=0x10910 (cudaDataLoader.15.sm_50.ptx:1979) st.global.f32 [%rd165], %f706; total: 678, miss: 678
 PC=0x10950 (cudaDataLoader.15.sm_50.ptx:1990) st.global.f32 [%rd168], %f707; total: 846, miss: 846
 PC=0x10990 (cudaDataLoader.15.sm_50.ptx:2001) st.global.f32 [%rd171], %f708; total: 678, miss: 678
 PC=0x109d0 (cudaDataLoader.15.sm_50.ptx:2012) st.global.f32 [%rd174], %f709; total: 846, miss: 846
 PC=0x10a10 (cudaDataLoader.15.sm_50.ptx:2023) st.global.f32 [%rd177], %f710; total: 678, miss: 678
 PC=0x10a50 (cudaDataLoader.15.sm_50.ptx:2034) st.global.f32 [%rd180], %f711; total: 846, miss: 846
 PC=0x10a90 (cudaDataLoader.15.sm_50.ptx:2045) st.global.f32 [%rd183], %f712; total: 678, miss: 678
 PC=0x10ad0 (cudaDataLoader.15.sm_50.ptx:2056) st.global.f32 [%rd186], %f713; total: 846, miss: 846
 PC=0x10b10 (cudaDataLoader.15.sm_50.ptx:2067) st.global.f32 [%rd189], %f714; total: 678, miss: 678
 PC=0x10c68 (cudaDataLoader.15.sm_50.ptx:2127) st.global.f32 [%rd2], %f101; total: 60342, miss: 59664
 PC=0x10c80 (cudaDataLoader.15.sm_50.ptx:2130) st.global.f32 [%rd128], %f102; total: 75294, miss: 75010
 PC=0x10c90 (cudaDataLoader.15.sm_50.ptx:2132) st.global.f32 [%rd129], %f103; total: 60342, miss: 60342
 PC=0x10ca0 (cudaDataLoader.15.sm_50.ptx:2134) st.global.f32 [%rd130], %f104; total: 75294, miss: 75294
 PC=0x10cb0 (cudaDataLoader.15.sm_50.ptx:2136) st.global.f32 [%rd131], %f105; total: 60342, miss: 60342
 PC=0x10cc0 (cudaDataLoader.15.sm_50.ptx:2138) st.global.f32 [%rd132], %f106; total: 75294, miss: 75294
 PC=0x10cd0 (cudaDataLoader.15.sm_50.ptx:2140) st.global.f32 [%rd133], %f107; total: 60342, miss: 60342
 PC=0x10ce0 (cudaDataLoader.15.sm_50.ptx:2142) st.global.f32 [%rd134], %f108; total: 75294, miss: 75294
 PC=0x10cf0 (cudaDataLoader.15.sm_50.ptx:2144) st.global.f32 [%rd135], %f109; total: 60342, miss: 60342
 PC=0x10d00 (cudaDataLoader.15.sm_50.ptx:2146) st.global.f32 [%rd136], %f110; total: 75294, miss: 75294
 PC=0x10d10 (cudaDataLoader.15.sm_50.ptx:2148) st.global.f32 [%rd137], %f111; total: 60342, miss: 60342
 PC=0x10d20 (cudaDataLoader.15.sm_50.ptx:2150) st.global.f32 [%rd138], %f112; total: 75294, miss: 75294
 PC=0x10d30 (cudaDataLoader.15.sm_50.ptx:2152) st.global.f32 [%rd139], %f113; total: 60342, miss: 60342
 PC=0x10d40 (cudaDataLoader.15.sm_50.ptx:2154) st.global.f32 [%rd140], %f114; total: 75294, miss: 75294
 PC=0x10d50 (cudaDataLoader.15.sm_50.ptx:2156) st.global.f32 [%rd141], %f115; total: 60342, miss: 60342
 PC=0x10d60 (cudaDataLoader.15.sm_50.ptx:2158) st.global.f32 [%rd142], %f116; total: 75294, miss: 75294
 PC=0xeaf70 (cudaDataLoader.10.sm_61.ptx:112) ld.global.f32 %f1, [%rd12]; total: 973827, miss: 973827
 PC=0xeaf78 (cudaDataLoader.10.sm_61.ptx:113) ld.global.u32 %r11, [%rd6]; total: 50613, miss: 44459
 PC=0xeaf8 (cudaDataLoader.15.sm_50.ptx:925) ld.global.f32 %f139, [%rd262]; total: 66855, miss: 18964
 PC=0xeafb0 (cudaDataLoader.10.sm_61.ptx:120) atom.global.add.f32 %f2, [%rd17], %f1; total: 1200694, miss: 242485
 PC=0xeb30 (cudaDataLoader.15.sm_50.ptx:932) ld.global.f32 %f140, [%rd7]; total: 73638, miss: 25539
 PC=0xeb48 (cudaDataLoader.15.sm_50.ptx:935) ld.global.f32 %f141, [%rd95]; total: 81598, miss: 33621
 PC=0xeb558 (cudaDataLoader.12.sm_61.ptx:48) ld.global.u32 %r8, [%rd6]; total: 67287, miss: 61232
 PC=0xeb5a0 (cudaDataLoader.12.sm_61.ptx:57) ld.global.f32 %f1, [%rd12]; total: 273520, miss: 106863
 PC=0xeb5d0 (cudaDataLoader.12.sm_61.ptx:63) st.global.f32 [%rd15], %f2; total: 973827, miss: 973827
 PC=0xeb60 (cudaDataLoader.15.sm_50.ptx:938) ld.global.f32 %f142, [%rd96]; total: 85322, miss: 37354
 PC=0xeba0 (cudaDataLoader.15.sm_50.ptx:950) ld.global.f32 %f135, [%rd262]; total: 800, miss: 312
 PC=0xebf0 (cudaDataLoader.15.sm_50.ptx:963) ld.global.f32 %f136, [%rd7]; total: 811, miss: 306
 PC=0xec58 (cudaDataLoader.15.sm_50.ptx:979) ld.global.f32 %f137, [%rd76]; total: 914, miss: 544
 PC=0xfef8 (cudaDataLoader.15.sm_50.ptx:1587) ld.global.f32 %f143, [%rd102]; total: 790795, miss: 155940
L2_total_cache_reservation_fail_breakdown:
	L2_cache_stats_fail_breakdown[GLOBAL_ACC_R][MSHR_ENRTY_FAIL] = 85
	L2_cache_stats_fail_breakdown[GLOBAL_ACC_R][MSHR_MERGE_ENRTY_FAIL] = 406646
L2_cache_data_port_util = 0.135
L2_cache_fill_port_util = 0.048

icnt_total_pkts_mem_to_simt=5327156
icnt_total_pkts_simt_to_mem=5327156
LD_mem_lat_dist  0 0 0 0 0 0 0 0 0 0 0 0 0 0 0 0 0 0 0 0 0 0 0 0 0 0 0
ST_mem_lat_dist  0 0 0 0 0 0 0 0 0 0 0 0 0 0 0 0 0 0 0 0 0 0 0 0 0 0 0
----------------------------Interconnect-DETAILS--------------------------------
Req_Network_injected_packets_num = 5327156
Req_Network_cycles = 384473
Req_Network_injected_packets_per_cycle =      13.8557 
Req_Network_conflicts_per_cycle =      13.2665
Req_Network_conflicts_per_cycle_util =      14.1652
Req_Bank_Level_Parallism =      14.7943
Req_Network_in_buffer_full_per_cycle =       0.0000
Req_Network_in_buffer_avg_util =      15.0881
Req_Network_out_buffer_full_per_cycle =       0.0000
Req_Network_out_buffer_avg_util =       1.3265

Reply_Network_injected_packets_num = 5327156
Reply_Network_cycles = 384473
Reply_Network_injected_packets_per_cycle =       13.8557
Reply_Network_conflicts_per_cycle =        7.8426
Reply_Network_conflicts_per_cycle_util =       8.3853
Reply_Bank_Level_Parallism =      14.8145
Reply_Network_in_buffer_full_per_cycle =       0.0000
Reply_Network_in_buffer_avg_util =       1.4265
Reply_Network_out_buffer_full_per_cycle =       0.0000
Reply_Network_out_buffer_avg_util =       0.1733
----------------------------END-of-Interconnect-DETAILS-------------------------


gpgpu_simulation_time = 0 days, 1 hrs, 8 min, 39 sec (4119 sec)
gpgpu_simulation_rate = 236721 (inst/sec)
gpgpu_simulation_rate = 93 (cycle/sec)
gpgpu_silicon_slowdown = 12172043x
GPGPU-Sim: detected inactive GPU simulation thread
GPGPU-Sim: synchronize waiting for inactive GPU simulation
GPGPU-Sim API: Stream Manager State
GPGPU-Sim: detected inactive GPU simulation thread
GPGPU-Sim: synchronize waiting for inactive GPU simulation
GPGPU-Sim API: Stream Manager State
GPGPU-Sim: detected inactive GPU simulation thread
GPGPU-Sim: *** exit detected ***
